geometry optimzed in LAMMPS
_audit_creation_date              2020-11-30 
_audit_creation_method            'lammps2cif' 
_symmetry_space_group_name_H-M    'P1' 
_symmetry_Int_Tables_number       1 
_symmetry_cell_setting            triclinic 
loop_ 
_symmetry_equiv_pos_as_xyz 
  x,y,z 
_cell_length_a                    58.04625242 
_cell_length_b                    58.58304070986111 
_cell_length_c                    57.84499627360962 
_cell_angle_alpha                 89.86830926560592 
_cell_angle_beta                  90.18259064369968 
_cell_angle_gamma                 90.16255336525244 
loop_ 
_atom_site_label 
_atom_site_type_symbol 
_atom_site_fract_x 
_atom_site_fract_y 
_atom_site_fract_z 
_atom_site_charge 
O1          O  0.52299631  0.69442175  0.98699954    -0.71200
O2          O  0.47353099  0.65180664  0.98467363    -0.71400
O3          O  0.47680200  0.69757969  0.98555263    -0.71200
O4          O  0.51953611  0.64853582  0.98616994    -0.71200
O5          O  0.51990454  0.64919335  0.02367167    -0.71200
O6          O  0.47433938  0.69573175  0.02285890    -0.71200
O7          O  0.47372268  0.64972444  0.02212151    -0.71200
O8          O  0.52054449  0.69525582  0.02442598    -0.71300
V9          V  0.49820891  0.67310675  0.98656496     1.35200
V10         V  0.49714871  0.67249953  0.02256571     1.35200
C11         C  0.52984983  0.70250999  0.00608766     0.78100
C12         C  0.46550983  0.64311650  0.00297502     0.78100
C13         C  0.46805959  0.70494915  0.00406117     0.78000
C14         C  0.52696070  0.64042562  0.00502775     0.78000
C15         C  0.82013852  0.65096244  0.00571886     0.87100
C16         C  0.83346018  0.65466586  0.98313471    -0.53100
C17         C  0.84724577  0.67361619  0.98296334     0.10000
C18         C  0.84556159  0.68814673  0.00524108     0.21000
C19         C  0.83838067  0.65226708  0.02512512    -0.53800
C20         C  0.85161199  0.67162396  0.02501617     0.10100
C21         C  0.80648619  0.67344388  0.00750145    -0.53400
C22         C  0.81954819  0.69287429  0.00851867     0.10700
H23         H  0.83311755  0.64272169  0.96885003     0.15200
H24         H  0.85667693  0.70359292  0.00503944     0.01000
H25         H  0.84120805  0.63841288  0.03729472     0.15500
H26         H  0.78787191  0.67431165  0.00672053     0.15300
C27         C  0.66326403  0.81542099  0.99974294     0.87100
C28         C  0.66482004  0.83431487  0.01802656    -0.53100
C29         C  0.68402944  0.84785458  0.01675042     0.10000
C30         C  0.69984262  0.84154572  0.99633644     0.21000
C31         C  0.66534989  0.82823221  0.97639834    -0.53800
C32         C  0.68393299  0.84259495  0.97486496     0.10100
C33         C  0.68616998  0.80255510  0.00088326    -0.53400
C34         C  0.70536682  0.81597134  0.99941116     0.10700
H35         H  0.65186393  0.83638818  0.03136906     0.15200
H36         H  0.71551504  0.85203773  0.99479527     0.01000
H37         H  0.65413075  0.82540738  0.96176890     0.15500
H38         H  0.68717110  0.78408527  0.00200399     0.15300
O39         O  0.70018503  0.50681371  0.02569562    -0.71200
O40         O  0.65365622  0.46084821  0.02298483    -0.71400
O41         O  0.69973826  0.46070726  0.02444276    -0.71200
O42         O  0.65372756  0.50687358  0.02428860    -0.71200
O43         O  0.65506127  0.50819004  0.98684331    -0.71200
O44         O  0.70087008  0.46184385  0.98694633    -0.71200
O45         O  0.65448743  0.46223052  0.98547305    -0.71200
O46         O  0.70135527  0.50783291  0.98830836    -0.71300
V47         V  0.67685756  0.48387717  0.02362832     1.35200
V48         V  0.67791488  0.48500066  0.98762163     1.35200
C49         C  0.70882918  0.51521213  0.00749384     0.78100
C50         C  0.64623937  0.45363981  0.00375156     0.78100
C51         C  0.70802068  0.45328595  0.00572132     0.78000
C52         C  0.64667458  0.51556967  0.00551962     0.78000
C53         C  0.66184744  0.14941719  0.99872996     0.87100
C54         C  0.66388212  0.13512638  0.97680267    -0.53100
C55         C  0.68167555  0.12000619  0.97658949     0.10000
C56         C  0.69772409  0.12230828  0.99818460     0.21000
C57         C  0.66263631  0.13159470  0.01882743    -0.53800
C58         C  0.68138974  0.11733299  0.01840445     0.10100
C59         C  0.68481450  0.16169564  0.00139304    -0.53400
C60         C  0.70380055  0.14808620  0.00102674     0.10700
H61         H  0.65145682  0.13644056  0.96282713     0.15200
H62         H  0.71308875  0.11127709  0.99835581     0.01000
H63         H  0.65052625  0.13067582  0.03297874     0.15500
H64         H  0.68592354  0.18001198  0.00415421     0.15300
C65         C  0.81735362  0.31735323  0.01189064     0.87100
C66         C  0.83657113  0.31376253  0.02988534    -0.53100
C67         C  0.84900102  0.29415745  0.02707978     0.10000
C68         C  0.84072331  0.27941210  0.00653318     0.21000
C69         C  0.83078119  0.31556170  0.98877584    -0.53800
C70         C  0.84273057  0.29567103  0.98578286     0.10100
C71         C  0.80277981  0.29559926  0.01332837    -0.53400
C72         C  0.81452106  0.27580973  0.00964682     0.10700
H73         H  0.84186830  0.32627361  0.04237017     0.15200
H74         H  0.85063866  0.26339196  0.00423974     0.01000
H75         H  0.83255042  0.32990808  0.97700730     0.15500
H76         H  0.78427998  0.29595512  0.01609634     0.15300
O77         O  0.52299862  0.31701549  0.97970333    -0.71200
O78         O  0.47533042  0.27274421  0.97680847    -0.71400
O79         O  0.47683725  0.31870681  0.97887347    -0.71200
O80         O  0.52164348  0.27127628  0.97793456    -0.71200
O81         O  0.52236415  0.27127674  0.01544044    -0.71200
O82         O  0.47463126  0.31547850  0.01620281    -0.71200
O83         O  0.47589073  0.26952221  0.01404729    -0.71200
O84         O  0.52099651  0.31704381  0.01711661    -0.71300
V85         V  0.49914732  0.29488191  0.97904757     1.35200
V86         V  0.49844474  0.29333653  0.01501028     1.35200
C87         C  0.53012283  0.32472765  0.99878996     0.78100
C88         C  0.46769896  0.26309112  0.99475663     0.78100
C89         C  0.46797881  0.32502217  0.99776586     0.78000
C90         C  0.53004301  0.26358541  0.99659125     0.78000
C91         C  0.17930020  0.31472502  0.99933100     0.87100
C92         C  0.16239257  0.31113424  0.97940547    -0.53100
C93         C  0.14896178  0.29213908  0.98137099     0.10000
C94         C  0.15395202  0.27777526  0.00332931     0.21000
C95         C  0.16458721  0.31362547  0.02157736    -0.53800
C96         C  0.15108133  0.29452473  0.02353110     0.10100
C97         C  0.19307726  0.29218658  0.00029596    -0.53400
C98         C  0.18008024  0.27291138  0.00328521     0.10700
H99         H  0.16021768  0.32343703  0.96548316     0.15200
H100        H  0.14290743  0.26235290  0.00493569     0.01000
H101        H  0.16383943  0.32744455  0.03392441     0.15500
H102        H  0.21167220  0.29123181  0.00002329     0.15300
C103        C  0.33480117  0.14886258  0.99294060     0.87100
C104        C  0.33509158  0.13347649  0.01441943    -0.53100
C105        C  0.31627482  0.11962026  0.01661112     0.10000
C106        C  0.29851671  0.12228527  0.99680915     0.21000
C107        C  0.33095109  0.13277720  0.97236834    -0.53800
C108        C  0.31233158  0.11851191  0.97438049     0.10100
C109        C  0.31165438  0.16156688  0.99544494    -0.53400
C110        C  0.29249086  0.14796510  0.99676084     0.10700
H111        H  0.34911257  0.13341467  0.02687935     0.15200
H112        H  0.28383388  0.11052671  0.99864797     0.01000
H113        H  0.34262969  0.13213614  0.95774579     0.15500
H114        H  0.31000532  0.17993105  0.99666552     0.15300
C115        C  0.17597934  0.64683527  0.99385437     0.87100
C116        C  0.15870516  0.64802239  0.01374989    -0.53100
C117        C  0.14427177  0.66627399  0.01291917     0.10000
C118        C  0.14898666  0.68265769  0.99257652     0.21000
C119        C  0.16072993  0.64855111  0.97185920    -0.53800
C120        C  0.14686579  0.66744374  0.97089849     0.10100
C121        C  0.18876228  0.66990566  0.99387206    -0.53400
C122        C  0.17487052  0.68877332  0.99390035     0.10700
H123        H  0.15797978  0.63529597  0.02739459     0.15200
H124        H  0.13732051  0.69752194  0.99288729     0.01000
H125        H  0.16066965  0.63615743  0.95800737     0.15500
H126        H  0.20738804  0.67130644  0.99402597     0.15300
C127        C  0.33348609  0.81503635  0.00047698     0.87100
C128        C  0.32958676  0.82995811  0.97904675    -0.53100
C129        C  0.30943098  0.84198440  0.97890828     0.10000
C130        C  0.29508693  0.83859107  0.00128304     0.21000
C131        C  0.33185495  0.83205240  0.02068220    -0.53800
C132        C  0.31157562  0.84379181  0.02182388     0.10100
C133        C  0.31141510  0.80057274  0.00334622    -0.53400
C134        C  0.29125492  0.81263066  0.00300577     0.10700
H135        H  0.34237415  0.83146316  0.96553929     0.15200
H136        H  0.27896709  0.84860383  0.00111502     0.01000
H137        H  0.34484700  0.83391305  0.03402330     0.15500
H138        H  0.31158482  0.78211022  0.00483237     0.15300
O139        O  0.34088630  0.50762071  0.01650642    -0.71200
O140        O  0.29752831  0.45886098  0.01781582    -0.71400
O141        O  0.34377968  0.46182012  0.01802438    -0.71200
O142        O  0.29467631  0.50472480  0.01629443    -0.71200
O143        O  0.29604444  0.50499254  0.97883154    -0.71200
O144        O  0.34268046  0.45945169  0.98067592    -0.71200
O145        O  0.29631247  0.45888435  0.98038276    -0.71200
O146        O  0.34239905  0.50527938  0.97912277    -0.71300
V147        V  0.31920245  0.48323529  0.01644152     1.35200
V148        V  0.31932312  0.48217032  0.98045657     1.35200
C149        C  0.34940231  0.51447701  0.99761112     0.78100
C150        C  0.28947380  0.45047350  0.99936019     0.78100
C151        C  0.35154178  0.45311803  0.99965897     0.78000
C152        C  0.28723014  0.51250646  0.99729195     0.78000
O153        O  0.52133468  0.98785401  0.70910069    -0.71200
O154        O  0.47719030  0.98460623  0.66062049    -0.71400
O155        O  0.47492911  0.98640289  0.70676882    -0.71200
O156        O  0.52356509  0.98588166  0.66274783    -0.71200
O157        O  0.52557366  0.94903681  0.66572225    -0.71200
O158        O  0.47476963  0.94942379  0.70718408    -0.71200
O159        O  0.47925226  0.94764761  0.66103408    -0.71200
O160        O  0.52100493  0.95094050  0.71193141    -0.71300
V161        V  0.49929394  0.98547253  0.68484830     1.35200
V162        V  0.50015371  0.94995757  0.68644326     1.35200
C163        C  0.52860227  0.96996870  0.71896344     0.78100
C164        C  0.47066306  0.96562926  0.65249860     0.78100
C165        C  0.46602471  0.96796283  0.71397269     0.78000
C166        C  0.53320551  0.96737572  0.65704163     0.78000
C167        C  0.84311495  0.98871499  0.66844534     0.87100
C168        C  0.85916608  0.00930441  0.67044211    -0.53100
C169        C  0.87400660  0.00884174  0.68882886     0.10000
C170        C  0.86983500  0.98793666  0.70520143     0.21000
C171        C  0.85881389  0.96749589  0.67029012    -0.53800
C172        C  0.87312553  0.96689122  0.68939302     0.10100
C173        C  0.83028093  0.98797471  0.69158324    -0.53400
C174        C  0.84372167  0.98757889  0.71084893     0.10700
H175        H  0.85852672  0.02327310  0.65819499     0.15200
H176        H  0.88036396  0.98780739  0.72100790     0.01000
H177        H  0.85813724  0.95375101  0.65778058     0.15500
H178        H  0.81176679  0.98567547  0.69291398     0.15300
C179        C  0.66937218  0.97674399  0.82292783     0.87100
C180        C  0.67584558  0.95733094  0.83946446    -0.53100
C181        C  0.69672588  0.95953220  0.85066384     0.10000
C182        C  0.70860565  0.98261944  0.84475689     0.21000
C183        C  0.67028276  0.99822184  0.83829504    -0.53800
C184        C  0.69041988  0.00110708  0.85001241     0.10100
C185        C  0.69029887  0.97971126  0.80695980    -0.53400
C186        C  0.71088125  0.98283969  0.81808520     0.10700
H187        H  0.66437968  0.94286452  0.84195909     0.15200
H188        H  0.72518273  0.98600297  0.85331690     0.01000
H189        H  0.65635761  0.01032784  0.84030413     0.15500
H190        H  0.68899245  0.97891307  0.78829867     0.15300
O191        O  0.67280979  0.95862602  0.48262960    -0.71200
O192        O  0.71605815  0.96090606  0.53207974    -0.71400
O193        O  0.66996179  0.95647320  0.52902227    -0.71200
O194        O  0.71881721  0.96312588  0.48572045    -0.71200
O195        O  0.71411902  0.99976998  0.48600864    -0.71200
O196        O  0.66762692  0.99332924  0.53178615    -0.71200
O197        O  0.71372227  0.99782610  0.53241672    -0.71200
O198        O  0.66793359  0.99520844  0.48523745    -0.71300
V199        V  0.69434806  0.96048366  0.50740053     1.35200
V200        V  0.69090828  0.99583479  0.50881999     1.35200
C201        C  0.66281829  0.97648046  0.47558657     0.78100
C202        C  0.72244336  0.97974416  0.54060132     0.78100
C203        C  0.66059960  0.97379315  0.53796628     0.78000
C204        C  0.72460289  0.98260385  0.47812617     0.78000
C205        C  0.16405014  0.97881904  0.65545143     0.87100
C206        C  0.14823183  0.95807085  0.65804492    -0.53100
C207        C  0.13422376  0.95854803  0.67690992     0.10000
C208        C  0.13839266  0.97955732  0.69268539     0.21000
C209        C  0.14744488  0.99964256  0.65714370    -0.53800
C210        C  0.13384689  0.99999162  0.67656726     0.10100
C211        C  0.17767689  0.98029528  0.67805171    -0.53400
C212        C  0.16461043  0.98070037  0.69756124     0.10700
H213        H  0.14766446  0.94437729  0.64541799     0.15200
H214        H  0.12836681  0.97974512  0.70885940     0.01000
H215        H  0.14693449  0.01372952  0.64504050     0.15500
H216        H  0.19636322  0.98107050  0.67856091     0.15300
C217        C  0.32549102  0.97679159  0.81938409     0.87100
C218        C  0.32483608  0.99726937  0.83575910    -0.53100
C219        C  0.30568658  0.99853295  0.84933524     0.10000
C220        C  0.28880858  0.97836534  0.84574592     0.21000
C221        C  0.32211868  0.95566816  0.83484661    -0.53800
C222        C  0.30344295  0.95667516  0.84914722     0.10100
C223        C  0.30231721  0.97792514  0.80610950    -0.53400
C224        C  0.28302344  0.97867183  0.81969780     0.10700
H225        H  0.33888254  0.00948414  0.83686992     0.15200
H226        H  0.27381462  0.97884648  0.85736131     0.01000
H227        H  0.33395974  0.94139173  0.83518063     0.15500
H228        H  0.30070698  0.97645980  0.78752047     0.15300
O229        O  0.33647590  0.95619383  0.52208699    -0.71200
O230        O  0.29441553  0.96076891  0.47207449    -0.71400
O231        O  0.34059593  0.95914410  0.47603895    -0.71200
O232        O  0.29022283  0.95821160  0.51809945    -0.71200
O233        O  0.29326937  0.99491293  0.52193661    -0.71200
O234        O  0.34041515  0.99620083  0.47669422    -0.71200
O235        O  0.29408328  0.99760899  0.47571150    -0.71200
O236        O  0.33975715  0.99308958  0.52300130    -0.71300
V237        V  0.31546749  0.95928262  0.49712418     1.35200
V238        V  0.31685448  0.99476632  0.49931262     1.35200
C239        C  0.34570556  0.97373835  0.53076581     0.78100
C240        C  0.28649742  0.97987387  0.46579779     0.78100
C241        C  0.34895808  0.97790119  0.46909496     0.78000
C242        C  0.28315846  0.97649194  0.52723249     0.78000
C243        C  0.33973074  0.98455053  0.17732811     0.87100
C244        C  0.34069265  0.96404150  0.16046009    -0.53100
C245        C  0.32223496  0.96246008  0.14566003     0.10000
C246        C  0.30383053  0.98078903  0.14979417     0.21000
C247        C  0.33515501  0.00562691  0.16219138    -0.53800
C248        C  0.31699223  0.00378166  0.14707124     0.10100
C249        C  0.31660991  0.98056425  0.18986982    -0.53400
C250        C  0.29788773  0.97794871  0.17578403     0.10700
H251        H  0.35439016  0.95151385  0.16090032     0.15200
H252        H  0.28893310  0.97867586  0.13806898     0.01000
H253        H  0.34668031  0.02027186  0.16223684     0.15500
H254        H  0.31480815  0.97842751  0.20832248     0.15300
C255        C  0.17340379  0.98343657  0.33194948     0.87100
C256        C  0.15672344  0.00346615  0.32969587    -0.53100
C257        C  0.14248443  0.00260211  0.31089143     0.10000
C258        C  0.14735386  0.98199636  0.29484467     0.21000
C259        C  0.15794049  0.96184464  0.32992592    -0.53800
C260        C  0.14409167  0.96108971  0.31072120     0.10100
C261        C  0.18689913  0.98309507  0.30923680    -0.53400
C262        C  0.17350377  0.98288239  0.28984478     0.10700
H263        H  0.15613265  0.01718221  0.34227486     0.15200
H264        H  0.13709175  0.98145244  0.27873132     0.01000
H265        H  0.15829312  0.94766495  0.34197329     0.15500
H266        H  0.20557645  0.98286423  0.30844478     0.15300
C267        C  0.67479004  0.98162842  0.17952930     0.87100
C268        C  0.67640275  0.00380791  0.16528709    -0.53100
C269        C  0.69448001  0.00480504  0.15022465     0.10000
C270        C  0.70952074  0.98324238  0.15065824     0.21000
C271        C  0.67481230  0.96233282  0.16155149    -0.53800
C272        C  0.69202994  0.96371964  0.14558035     0.10100
C273        C  0.69828900  0.97846146  0.19094017    -0.53400
C274        C  0.71673900  0.98043146  0.17646664     0.10700
H275        H  0.66341397  0.01709635  0.16612023     0.15200
H276        H  0.72384205  0.98384944  0.13812429     0.01000
H277        H  0.66216179  0.94868760  0.16115671     0.15500
H278        H  0.70052715  0.97561814  0.20926804     0.15300
C279        C  0.83657403  0.98295637  0.34356854     0.87100
C280        C  0.84927679  0.96044575  0.33943804    -0.53100
C281        C  0.86198658  0.95967198  0.31960021     0.10000
C282        C  0.86045577  0.98186174  0.30519178     0.21000
C283        C  0.85489976  0.00190647  0.34159546    -0.53800
C284        C  0.86787713  0.00098602  0.32194626     0.10100
C285        C  0.82219348  0.98665525  0.32138016    -0.53400
C286        C  0.83441702  0.98580057  0.30129658     0.10700
H287        H  0.84890948  0.94648594  0.35183227     0.15200
H288        H  0.87073081  0.98174278  0.28920614     0.01000
H289        H  0.85709271  0.01537216  0.35422085     0.15500
H290        H  0.80377910  0.98979068  0.32119192     0.15300
O291        O  0.48591071  0.00193844  0.29866215    -0.71200
O292        O  0.53220400  0.99668400  0.34498067    -0.71400
O293        O  0.53217280  0.99915273  0.29864207    -0.71200
O294        O  0.48581877  0.99926409  0.34493983    -0.71200
O295        O  0.48313624  0.96245044  0.34213782    -0.71200
O296        O  0.53047814  0.96224147  0.29714444    -0.71200
O297        O  0.52938906  0.95976996  0.34365718    -0.71200
O298        O  0.48414847  0.96519448  0.29597591    -0.71300
V299        V  0.50902265  0.99854762  0.32177429     1.35200
V300        V  0.50687117  0.96311510  0.31977037     1.35200
C301        C  0.47683524  0.98455971  0.28946059     0.78100
C302        C  0.53856153  0.97738051  0.35242060     0.78100
C303        C  0.53924747  0.98069894  0.28993745     0.78000
C304        C  0.47608635  0.98083058  0.35093169     0.78000
O305        O  0.96691171  0.49912286  0.70614484    -0.71200
O306        O  0.96904023  0.45358598  0.65945877    -0.71400
O307        O  0.96755741  0.45317292  0.70606210    -0.71200
O308        O  0.96874279  0.49982863  0.65970564    -0.71200
O309        O  0.00600002  0.50076208  0.66196398    -0.71200
O310        O  0.00494378  0.45293724  0.70637173    -0.71200
O311        O  0.00628929  0.45475628  0.66012726    -0.71200
O312        O  0.00424691  0.49871010  0.70848370    -0.71300
V313        V  0.96876318  0.47642056  0.68282933     1.35200
V314        V  0.00463387  0.47681412  0.68418020     1.35200
C315        C  0.98517631  0.50636102  0.71557676     0.78100
C316        C  0.98797819  0.44619489  0.65183292     0.78100
C317        C  0.98619031  0.44494807  0.71389858     0.78000
C318        C  0.98768021  0.50846479  0.65308963     0.78000
C319        C  0.99783624  0.80095382  0.66656795     0.87100
C320        C  0.97715269  0.81687377  0.66967527    -0.53100
C321        C  0.97753782  0.82945225  0.68947074     0.10000
C322        C  0.99908444  0.82538835  0.70451012     0.21000
C323        C  0.01856558  0.81763882  0.66809436    -0.53800
C324        C  0.01942266  0.83013122  0.68806027     0.10100
C325        C  0.99998930  0.78701053  0.68887662    -0.53400
C326        C  0.99984811  0.79934083  0.70893882     0.10700
H327        H  0.96369259  0.81871055  0.65670708     0.15200
H328        H  0.99923796  0.83624746  0.72003459     0.01000
H329        H  0.03133144  0.82047307  0.65486498     0.15500
H330        H  0.00064146  0.76847213  0.68873067     0.15300
C331        C  0.98936385  0.63760623  0.83031336     0.87100
C332        C  0.01210134  0.63807725  0.84371863    -0.53100
C333        C  0.01513576  0.65659934  0.85752436     0.10000
C334        C  0.99506919  0.67388981  0.85618431     0.21000
C335        C  0.97080438  0.64070396  0.84946897    -0.53800
C336        C  0.97345572  0.65991686  0.86311920     0.10100
C337        C  0.98801467  0.66022117  0.81712612    -0.53400
C338        C  0.99176801  0.67906166  0.83027753     0.10700
H339        H  0.02503233  0.62491667  0.84183561     0.15200
H340        H  0.99824458  0.68958864  0.86605245     0.01000
H341        H  0.95631242  0.62935091  0.85188493     0.15500
H342        H  0.98538560  0.66125393  0.79854576     0.15300
O343        O  0.97179130  0.68590057  0.47438734    -0.71200
O344        O  0.96876614  0.63999566  0.52095500    -0.71400
O345        O  0.96987163  0.68584061  0.52085080    -0.71200
O346        O  0.97078908  0.64014939  0.47430434    -0.71200
O347        O  0.00806405  0.63907278  0.47639750    -0.71200
O348        O  0.00727833  0.68511011  0.52232041    -0.71200
O349        O  0.00608157  0.63954297  0.52306302    -0.71200
O350        O  0.00911699  0.68475773  0.47570924    -0.71300
V351        V  0.97102090  0.66293352  0.49766634     1.35200
V352        V  0.00690743  0.66214120  0.49932297     1.35200
C353        C  0.99097426  0.69289386  0.46679661     0.78100
C354        C  0.98686572  0.63210372  0.53017067     0.78100
C355        C  0.98846948  0.69309528  0.52958946     0.78000
C356        C  0.98961602  0.63210836  0.46707736     0.78000
C357        C  0.00441585  0.64934796  0.16834242     0.87100
C358        C  0.98402973  0.65108162  0.15160793    -0.53100
C359        C  0.98418121  0.66996304  0.13782015     0.10000
C360        C  0.00439802  0.68639202  0.14280641     0.21000
C361        C  0.02577347  0.65197697  0.15258007    -0.53800
C362        C  0.02591799  0.67138573  0.13935349     0.10100
C363        C  0.00475594  0.67166006  0.18210804    -0.53400
C364        C  0.00394074  0.69125088  0.16915273     0.10700
H365        H  0.97090451  0.63790872  0.15027569     0.15200
H366        H  0.00382305  0.70167233  0.13164311     0.01000
H367        H  0.03974434  0.63988313  0.15149830     0.15500
H368        H  0.00539523  0.67190909  0.20086426     0.15300
C369        C  0.00157848  0.80829139  0.33580380     0.87100
C370        C  0.02536824  0.82027300  0.33429273    -0.53100
C371        C  0.02835706  0.83369348  0.31509529     0.10000
C372        C  0.00711007  0.83375559  0.29882962     0.21000
C373        C  0.98430097  0.82783989  0.33358535    -0.53800
C374        C  0.98674533  0.84107155  0.31432797     0.10100
C375        C  0.00048479  0.79511966  0.31291987    -0.53400
C376        C  0.00284788  0.80821157  0.29353137     0.10700
H377        H  0.03912537  0.81843224  0.34683328     0.15200
H378        H  0.00907253  0.84451611  0.28326628     0.01000
H379        H  0.97062321  0.83057088  0.34606013     0.15500
H380        H  0.99859447  0.77669354  0.31209455     0.15300
O381        O  0.01968806  0.50514539  0.28601479    -0.71200
O382        O  0.01718448  0.46051444  0.33362106    -0.71400
O383        O  0.01725439  0.45912272  0.28723595    -0.71200
O384        O  0.01911038  0.50648128  0.33245732    -0.71200
O385        O  0.98171258  0.50709237  0.33252692    -0.71200
O386        O  0.98012284  0.46155912  0.28641943    -0.71200
O387        O  0.97981497  0.46126337  0.33250229    -0.71200
O388        O  0.98236336  0.50724284  0.28600911    -0.71300
V389        V  0.01762311  0.48286654  0.30981207     1.35200
V390        V  0.98175106  0.48432738  0.30937457     1.35200
C391        C  0.00147414  0.51383047  0.27789445     0.78100
C392        C  0.99811446  0.45281144  0.34072615     0.78100
C393        C  0.99815400  0.45207918  0.27920581     0.78000
C394        C  0.00056970  0.51467254  0.34032697     0.78000
C395        C  0.00903524  0.16726165  0.66891583     0.87100
C396        C  0.03001803  0.15164130  0.67137515    -0.53100
C397        C  0.03035427  0.13848280  0.69103246     0.10000
C398        C  0.00976050  0.14360967  0.70749561     0.21000
C399        C  0.98788318  0.15171320  0.67258622    -0.53800
C400        C  0.98836181  0.13911559  0.69246178     0.10100
C401        C  0.01106108  0.18172118  0.69095437    -0.53400
C402        C  0.00962219  0.16996810  0.71119708     0.10700
H403        H  0.04303546  0.15011111  0.65807963     0.15200
H404        H  0.00945770  0.13338759  0.72358624     0.01000
H405        H  0.97444741  0.14970256  0.65963565     0.15500
H406        H  0.01393880  0.19998753  0.69093539     0.15300
C407        C  0.99407760  0.32371652  0.84029564     0.87100
C408        C  0.97188786  0.32068984  0.85412076    -0.53100
C409        C  0.97131760  0.30212368  0.86835652     0.10000
C410        C  0.99284259  0.28646187  0.86575337     0.21000
C411        C  0.01378790  0.32166969  0.85835646    -0.53800
C412        C  0.01315428  0.30233425  0.87198515     0.10100
C413        C  0.99653103  0.30143989  0.82670465    -0.53400
C414        C  0.99600322  0.28188526  0.83947277     0.10700
H415        H  0.95803529  0.33306239  0.85341175     0.15200
H416        H  0.99238109  0.27054081  0.87582203     0.01000
H417        H  0.02799212  0.33335516  0.85967458     0.15500
H418        H  0.99961052  0.30120792  0.80817617     0.15300
C419        C  0.00784164  0.15735296  0.32671923     0.87100
C420        C  0.98700171  0.14078179  0.32606634    -0.53100
C421        C  0.98569646  0.12718610  0.30680267     0.10000
C422        C  0.00494597  0.13236668  0.28929253     0.21000
C423        C  0.02869018  0.14195151  0.32266849    -0.53800
C424        C  0.02755459  0.12926051  0.30295077     0.10100
C425        C  0.00454788  0.17107244  0.30442618    -0.53400
C426        C  0.00282754  0.15823995  0.28485090     0.10700
H427        H  0.97401557  0.13975613  0.33944981     0.15200
H428        H  0.00450843  0.12177973  0.27356851     0.01000
H429        H  0.04241332  0.14017851  0.33530237     0.15500
H430        H  0.00323070  0.18949076  0.30414317     0.15300
C431        C  0.99783668  0.31735140  0.16856525     0.87100
C432        C  0.01776966  0.31902201  0.15103550    -0.53100
C433        C  0.01959641  0.30057590  0.13668583     0.10000
C434        C  0.00199873  0.28155999  0.14180255     0.21000
C435        C  0.97621878  0.31180052  0.15420667    -0.53800
C436        C  0.97825716  0.29302240  0.14035637     0.10100
C437        C  0.00333997  0.29483150  0.18147543    -0.53400
C438        C  0.00539538  0.27626941  0.16748304     0.10700
H439        H  0.02992199  0.33310906  0.15066232     0.15200
H440        H  0.00375653  0.26632888  0.13054037     0.01000
H441        H  0.96074144  0.32214500  0.15471695     0.15500
H442        H  0.00583282  0.29324943  0.19998182     0.15300
O443        O  0.01972275  0.32183025  0.51643467    -0.71200
O444        O  0.02035391  0.27480979  0.47093026    -0.71400
O445        O  0.02050715  0.32063606  0.46974475    -0.71200
O446        O  0.01971024  0.27619946  0.51753423    -0.71200
O447        O  0.98247903  0.27691893  0.51769747    -0.71200
O448        O  0.98318545  0.31975688  0.46835832    -0.71200
O449        O  0.98312276  0.27405386  0.47126335    -0.71200
O450        O  0.98231875  0.32245557  0.51472447    -0.71300
V451        V  0.01938040  0.29836458  0.49361908     1.35200
V452        V  0.98350580  0.29827660  0.49298328     1.35200
C453        C  0.00081860  0.33000289  0.52337512     0.78100
C454        C  0.00173224  0.26639257  0.46318809     0.78100
C455        C  0.00199725  0.32761289  0.46067540     0.78000
C456        C  0.00097380  0.26936864  0.52631286     0.78000
C457        C  0.98513530  0.22688180  0.41283251    -0.11300
C458        C  0.00618885  0.21619715  0.40847861     0.11300
C459        C  0.02543186  0.22103248  0.42274422    -0.03100
C460        C  0.02304352  0.23722106  0.44053437    -0.05800
C461        C  0.00199374  0.24833029  0.44488123    -0.16600
C462        C  0.98238287  0.24244985  0.43113624     0.02300
C463        C  0.00760252  0.20032177  0.38849663     0.12300
C464        C  0.04836993  0.20906515  0.41924721     0.62900
H465        H  0.03783702  0.24140214  0.45116269     0.12300
C466        C  0.95858832  0.25239561  0.43532403     0.55000
H467        H  0.97077689  0.22289114  0.40153824     0.08100
C468        C  0.99828652  0.17802789  0.38916452    -0.05700
C469        C  0.00014811  0.16420421  0.36940779    -0.06400
C470        C  0.01042318  0.17201716  0.34872264    -0.16000
C471        C  0.02240961  0.19342241  0.34948491    -0.01600
C472        C  0.01919821  0.20770735  0.36869069    -0.09100
C473        C  0.98582703  0.16903784  0.41039937     0.65100
H474        H  0.99346743  0.14703415  0.37025851     0.10600
C475        C  0.03954142  0.20215762  0.33161036     0.63500
H476        H  0.02670991  0.22468422  0.36862360     0.07900
F477        F  0.95118906  0.24657163  0.45728143    -0.19500
F478        F  0.94239028  0.24414643  0.41980380    -0.15700
F479        F  0.95927825  0.27588851  0.43297181    -0.19200
F480        F  0.05802237  0.21575882  0.39850171    -0.22600
F481        F  0.04513234  0.18566853  0.41907858    -0.24100
F482        F  0.06392087  0.21415812  0.43668989    -0.18100
F483        F  0.02989338  0.22012104  0.31945036    -0.20600
F484        F  0.04670735  0.18570031  0.31628049    -0.21700
F485        F  0.05912501  0.21005291  0.34278433    -0.18900
F486        F  0.98104083  0.14593447  0.40866904    -0.19000
F487        F  0.96518741  0.18044248  0.41296484    -0.22800
F488        F  0.99917624  0.17229538  0.42995511    -0.24400
C489        C  0.02396616  0.22720399  0.20562158    -0.11300
C490        C  0.00501915  0.21253180  0.20298711     0.11300
C491        C  0.98821134  0.21726192  0.18583723    -0.03100
C492        C  0.99023557  0.23750400  0.17296329    -0.05800
C493        C  0.00827810  0.25299572  0.17687417    -0.16600
C494        C  0.02619033  0.24721568  0.19249484     0.02300
C495        C  0.00143152  0.19545104  0.22145573     0.12300
C496        C  0.96736605  0.20228191  0.18109681     0.62900
H497        H  0.97669953  0.24196766  0.16080546     0.12300
C498        C  0.04759151  0.26165873  0.19646202     0.55000
H499        H  0.03671027  0.22348437  0.21885605     0.08100
C500        C  0.01423431  0.17502087  0.22292949    -0.05700
C501        C  0.01307558  0.16211823  0.24346556    -0.06400
C502        C  0.99891592  0.16885666  0.26186413    -0.16000
C503        C  0.98350831  0.18744905  0.25869397    -0.01600
C504        C  0.98588523  0.20105533  0.23894376    -0.09100
C505        C  0.02905837  0.16718292  0.20296086     0.65100
H506        H  0.02421566  0.14748479  0.24575771     0.10600
C507        C  0.96443514  0.19378000  0.27545043     0.63500
H508        H  0.97556185  0.21637349  0.23716231     0.07900
F509        F  0.06691937  0.24799241  0.19480820    -0.19500
F510        F  0.04683803  0.27096040  0.21839911    -0.15700
F511        F  0.04996379  0.27911270  0.18053630    -0.19200
F512        F  0.94756585  0.21425228  0.18636853    -0.22600
F513        F  0.96739394  0.18218924  0.19366130    -0.24100
F514        F  0.96688079  0.19665634  0.15788893    -0.18100
F515        F  0.97078408  0.21308285  0.28765076    -0.20600
F516        F  0.95930841  0.17642912  0.29083938    -0.21700
F517        F  0.94445519  0.19849403  0.26324059    -0.18900
F518        F  0.03821065  0.14573093  0.20694695    -0.19000
F519        F  0.04703658  0.18232606  0.19958655    -0.22800
F520        F  0.01584401  0.16615063  0.18303957    -0.24400
C521        C  0.98366522  0.22850831  0.57531493    -0.11300
C522        C  0.00508751  0.22476046  0.58579626     0.11300
C523        C  0.02506618  0.23496118  0.57648404    -0.03100
C524        C  0.02279592  0.24901182  0.55691047    -0.05800
C525        C  0.00123264  0.25348122  0.54655724    -0.16600
C526        C  0.98112619  0.24314310  0.55615220     0.02300
C527        C  0.00581701  0.21032888  0.60686278     0.12300
C528        C  0.04864995  0.23109519  0.58725972     0.62900
H529        H  0.03807627  0.25687493  0.54973200     0.12300
C530        C  0.95700598  0.24752073  0.54682370     0.55000
H531        H  0.96876160  0.22017007  0.58278918     0.08100
C532        C  0.99866009  0.21867031  0.62850095    -0.05700
C533        C  0.99890886  0.20379026  0.64751205    -0.06400
C534        C  0.00718746  0.18111596  0.64619317    -0.16000
C535        C  0.01192781  0.17225762  0.62362014    -0.01600
C536        C  0.01208491  0.18741412  0.60466643    -0.09100
C537        C  0.99079490  0.24324826  0.63158778     0.65100
H538        H  0.99171153  0.20994233  0.66344100     0.10600
C539        C  0.01632863  0.14730060  0.61787770     0.63500
H540        H  0.01652299  0.18115624  0.58762475     0.07900
F541        F  0.94042391  0.23511777  0.55862279    -0.19500
F542        F  0.95575988  0.24131178  0.52379856    -0.15700
F543        F  0.95162502  0.27038847  0.54919404    -0.19200
F544        F  0.05446698  0.20830143  0.58560917    -0.22600
F545        F  0.04839247  0.23732510  0.61029468    -0.24100
F546        F  0.06562250  0.24375980  0.57634266    -0.18100
F547        F  0.00557526  0.14172373  0.59722646    -0.20600
F548        F  0.00779507  0.13244386  0.63424013    -0.21700
F549        F  0.03973592  0.14383293  0.61535220    -0.18900
F550        F  0.98685047  0.24846073  0.65457259    -0.19000
F551        F  0.97054530  0.24686074  0.61952590    -0.22800
F552        F  0.00747883  0.25810025  0.62347414    -0.24400
C553        C  0.99197553  0.22368346  0.80973744    -0.11300
C554        C  0.01088273  0.22510028  0.79479590     0.11300
C555        C  0.02656016  0.24352464  0.79709494    -0.03100
C556        C  0.02258579  0.25994966  0.81440230    -0.05800
C557        C  0.00246367  0.25976290  0.82801762    -0.16600
C558        C  0.98718294  0.24092545  0.82599111     0.02300
C559        C  0.01076211  0.20988768  0.77418394     0.12300
C560        C  0.04626029  0.24693120  0.78014786     0.62900
H561        H  0.03416130  0.27439908  0.81601087     0.12300
C562        C  0.96541224  0.23936354  0.84008931     0.55000
H563        H  0.98007550  0.20959297  0.80741948     0.08100
C564        C  0.02061423  0.18782324  0.77388390    -0.05700
C565        C  0.01923423  0.17484142  0.75332597    -0.06400
C566        C  0.00718872  0.18260692  0.73371596    -0.16000
C567        C  0.99467486  0.20354928  0.73553785    -0.01600
C568        C  0.99792194  0.21725199  0.75513381    -0.09100
C569        C  0.03184863  0.17782227  0.79532727     0.65100
H570        H  0.02766348  0.15858356  0.75250606     0.10600
C571        C  0.97689545  0.21215285  0.71818055     0.63500
H572        H  0.98936671  0.23367144  0.75608311     0.07900
F573        F  0.97133417  0.23620118  0.86300439    -0.19500
F574        F  0.95163703  0.22117923  0.83344361    -0.15700
F575        F  0.95268272  0.25910909  0.83735301    -0.19200
F576        F  0.03754333  0.25021548  0.75812562    -0.22600
F577        F  0.06041317  0.22804245  0.78007170    -0.24100
F578        F  0.05962919  0.26575491  0.78573099    -0.18100
F579        F  0.95764465  0.21992331  0.72981135    -0.20600
F580        F  0.96932355  0.19548014  0.70314824    -0.21700
F581        F  0.98611211  0.23015554  0.70572662    -0.18900
F582        F  0.04099652  0.15642833  0.79115808    -0.19000
F583        F  0.01558513  0.17574505  0.81261152    -0.22800
F584        F  0.04944020  0.19181010  0.80300351    -0.24400
C585        C  0.98537281  0.39682569  0.37182328    -0.11300
C586        C  0.99981901  0.39879922  0.39116501     0.11300
C587        C  0.01384286  0.41841750  0.39387215    -0.03100
C588        C  0.01250501  0.43582757  0.37713545    -0.05800
C589        C  0.99755055  0.43420420  0.35807485    -0.16600
C590        C  0.98379100  0.41433528  0.35521221     0.02300
C591        C  0.99969042  0.38011373  0.40851546     0.12300
C592        C  0.03023770  0.42081124  0.41426229     0.62900
H593        H  0.02317296  0.45093888  0.37880142     0.12300
C594        C  0.96794024  0.41130768  0.33449903     0.55000
H595        H  0.97510764  0.38145886  0.37003412     0.08100
C596        C  0.98235358  0.37847766  0.42556042    -0.05700
C597        C  0.98380920  0.36093359  0.44207460    -0.06400
C598        C  0.00197709  0.34514262  0.44212131    -0.16000
C599        C  0.01901695  0.34640586  0.42455215    -0.01600
C600        C  0.01739274  0.36391080  0.40789865    -0.09100
C601        C  0.96245533  0.39525444  0.42634447     0.65100
H602        H  0.97079128  0.35959792  0.45537328     0.10600
C603        C  0.03850411  0.32921433  0.42290898     0.63500
H604        H  0.03016176  0.36535870  0.39435763     0.07900
F605        F  0.95017127  0.42693038  0.33557538    -0.19500
F606        F  0.95831419  0.38966928  0.33378641    -0.15700
F607        F  0.98016809  0.41454431  0.31427602    -0.19200
F608        F  0.04703685  0.40418252  0.41309797    -0.22600
F609        F  0.01833740  0.41841026  0.43479625    -0.24100
F610        F  0.04107233  0.44188955  0.41447586    -0.18100
F611        F  0.05130286  0.33215015  0.40295113    -0.20600
F612        F  0.02961373  0.30727562  0.42271448    -0.21700
F613        F  0.05328266  0.33171319  0.44152546    -0.18900
F614        F  0.94823555  0.39133790  0.44511843    -0.19000
F615        F  0.94928618  0.39324370  0.40650417    -0.22800
F616        F  0.97078264  0.41732533  0.42794463    -0.24400
C617        C  0.97676230  0.40642405  0.23668353    -0.11300
C618        C  0.99720661  0.39476754  0.23223010     0.11300
C619        C  0.01809380  0.40242558  0.24211306    -0.03100
C620        C  0.01759355  0.42126030  0.25715935    -0.05800
C621        C  0.99695530  0.43279261  0.26234416    -0.16600
C622        C  0.97600407  0.42521069  0.25172378     0.02300
C623        C  0.99609107  0.37498584  0.21636534     0.12300
C624        C  0.04079580  0.39094698  0.23638254     0.62900
H625        H  0.03349896  0.42707356  0.26501340     0.12300
C626        C  0.95273361  0.43637750  0.25596670     0.55000
H627        H  0.96120812  0.40032413  0.22832013     0.08100
C628        C  0.98929142  0.35306453  0.22388913    -0.05700
C629        C  0.98881759  0.33518387  0.20769536    -0.06400
C630        C  0.99471244  0.33848604  0.18418204    -0.16000
C631        C  0.99729705  0.36154800  0.17637554    -0.01600
C632        C  0.99945632  0.37901412  0.19284241    -0.09100
C633        C  0.98235723  0.34869368  0.24885234     0.65100
H634        H  0.98314110  0.31859520  0.21346557     0.10600
C635        C  0.99679582  0.36957708  0.15141961     0.63500
H636        H  0.00280105  0.39637403  0.18715915     0.07900
F637        F  0.93534212  0.42658342  0.24285016    -0.19500
F638        F  0.95370341  0.45924345  0.25012269    -0.15700
F639        F  0.94665465  0.43397465  0.27894507    -0.19200
F640        F  0.04535081  0.39352656  0.21307596    -0.22600
F641        F  0.03966214  0.36793098  0.24158601    -0.24100
F642        F  0.05900399  0.40028289  0.24868768    -0.18100
F643        F  0.98126954  0.38735872  0.14925390    -0.20600
F644        F  0.98992093  0.35301883  0.13601627    -0.21700
F645        F  0.01840123  0.37756935  0.14543813    -0.18900
F646        F  0.97679600  0.32601348  0.25272715    -0.19000
F647        F  0.96329201  0.36168675  0.25428601    -0.22800
F648        F  0.00024735  0.35446546  0.26355796    -0.24400
C649        C  0.98949407  0.60651531  0.21748849    -0.11300
C650        C  0.00469478  0.58871332  0.21283790     0.11300
C651        C  0.01796281  0.58923144  0.19249016    -0.03100
C652        C  0.01681767  0.60869503  0.17825832    -0.05800
C653        C  0.00281124  0.62771876  0.18356563    -0.16600
C654        C  0.98726600  0.62548076  0.20272492     0.02300
C655        C  0.00509333  0.56907184  0.22900479     0.12300
C656        C  0.03298498  0.56911012  0.18568760     0.62900
H657        H  0.02638436  0.60841788  0.16238402     0.12300
C658        C  0.96788894  0.64185540  0.20907225     0.55000
H659        H  0.97869462  0.60521481  0.23271660     0.08100
C660        C  0.01934507  0.56889482  0.24886420    -0.05700
C661        C  0.01857957  0.54978983  0.26357811    -0.06400
C662        C  0.00273254  0.53197130  0.26007074    -0.16000
C663        C  0.98852053  0.53213561  0.24008819    -0.01600
C664        C  0.99004730  0.55077945  0.22478372    -0.09100
C665        C  0.03440371  0.58926175  0.25505158     0.65100
H666        H  0.02982860  0.54903315  0.27848531     0.10600
C667        C  0.97250289  0.51239110  0.23446893     0.63500
H668        H  0.97920599  0.55146014  0.20952111     0.07900
F669        F  0.97422788  0.65407388  0.22851769    -0.19500
F670        F  0.94818448  0.62946585  0.21416846    -0.15700
F671        F  0.96189960  0.65693156  0.19180777    -0.19200
F672        F  0.01936565  0.55000698  0.18232435    -0.22600
F673        F  0.04886593  0.56452674  0.20291233    -0.24100
F674        F  0.04499104  0.57326243  0.16546042    -0.18100
F675        F  0.95466451  0.51160750  0.25022456    -0.20600
F676        F  0.98465823  0.49212827  0.23528731    -0.21700
F677        F  0.96299582  0.51444896  0.21258158    -0.18900
F678        F  0.04737388  0.58526815  0.27477050    -0.19000
F679        F  0.02063737  0.60805173  0.25906168    -0.22800
F680        F  0.04936618  0.59424610  0.23720693    -0.24400
C681        C  0.98839991  0.78569410  0.23320528    -0.11300
C682        C  0.00514437  0.76861747  0.23101558     0.11300
C683        C  0.02296645  0.76699743  0.24768328    -0.03100
C684        C  0.02201599  0.78105943  0.26729801    -0.05800
C685        C  0.00444510  0.79719881  0.27036240    -0.16600
C686        C  0.98755567  0.79994928  0.25282128     0.02300
C687        C  0.00204590  0.75080729  0.21291542     0.12300
C688        C  0.04262119  0.75013984  0.24499945     0.62900
H689        H  0.03455557  0.77888595  0.28099412     0.12300
C690        C  0.96767526  0.81638762  0.25562654     0.55000
H691        H  0.97514064  0.78677257  0.22003954     0.08100
C692        C  0.98670071  0.73230222  0.21622069    -0.05700
C693        C  0.98626929  0.71470311  0.19978576    -0.06400
C694        C  0.00169191  0.71399808  0.18102975    -0.16000
C695        C  0.01632549  0.73322144  0.17714364    -0.01600
C696        C  0.01580600  0.75150310  0.19306587    -0.09100
C697        C  0.97174206  0.73047265  0.23771093     0.65100
H698        H  0.97466469  0.70042462  0.20229076     0.10600
C699        C  0.03303136  0.73457262  0.15707135     0.63500
H700        H  0.02689485  0.76621077  0.19070564     0.07900
F701        F  0.95269583  0.81569433  0.23696667    -0.19500
F702        F  0.97587586  0.83844980  0.25754920    -0.15700
F703        F  0.95540708  0.81066094  0.27522006    -0.19200
F704        F  0.05500215  0.75540303  0.22531015    -0.22600
F705        F  0.03410999  0.72814725  0.24319841    -0.24100
F706        F  0.05766155  0.75081600  0.26361425    -0.18100
F707        F  0.02100158  0.73696783  0.13659328    -0.20600
F708        F  0.04643853  0.71521969  0.15635070    -0.21700
F709        F  0.04777644  0.75310187  0.15898172    -0.18900
F710        F  0.95895834  0.71048420  0.23804260    -0.19000
F711        F  0.95655026  0.74856181  0.23853336    -0.22800
F712        F  0.98546178  0.73073902  0.25730393    -0.24400
C713        C  0.97747633  0.59836556  0.41186175    -0.11300
C714        C  0.99501312  0.58202019  0.41295670     0.11300
C715        C  0.01112687  0.58253905  0.43130925    -0.03100
C716        C  0.00839215  0.59891209  0.44880345    -0.05800
C717        C  0.99043601  0.61497638  0.44820682    -0.16600
C718        C  0.97490928  0.61506043  0.42912938     0.02300
C719        C  0.99622636  0.56461081  0.39444946     0.12300
C720        C  0.03126825  0.56603369  0.43217301     0.62900
H721        H  0.02040220  0.59931597  0.46315991     0.12300
C722        C  0.95621468  0.63300236  0.42642523     0.55000
H723        H  0.96573167  0.59783054  0.39728267     0.08100
C724        C  0.98275968  0.54446779  0.39519118    -0.05700
C725        C  0.98519065  0.52843727  0.37734555    -0.06400
C726        C  0.00037101  0.53207159  0.35884130    -0.16000
C727        C  0.01341316  0.55254983  0.35783395    -0.01600
C728        C  0.01107016  0.56854233  0.37578718    -0.09100
C729        C  0.96564126  0.54013789  0.41453980     0.65100
H730        H  0.97506870  0.51287506  0.37760822     0.10600
C731        C  0.02867981  0.55807119  0.33736282     0.63500
H732        H  0.02077856  0.58435634  0.37543051     0.07900
F733        F  0.93975707  0.63016119  0.44341841    -0.19500
F734        F  0.94521732  0.63149586  0.40520283    -0.15700
F735        F  0.96575587  0.65460616  0.42807727    -0.19200
F736        F  0.04521980  0.56942565  0.41314189    -0.22600
F737        F  0.02331943  0.54377270  0.43209047    -0.24100
F738        F  0.04460465  0.56905695  0.45181141    -0.18100
F739        F  0.01567580  0.55713354  0.31735970    -0.20600
F740        F  0.04651321  0.54254488  0.33609283    -0.21700
F741        F  0.03820817  0.57971254  0.33892041    -0.18900
F742        F  0.95508962  0.51901219  0.41248120    -0.19000
F743        F  0.94867938  0.55664338  0.41399973    -0.22800
F744        F  0.97669144  0.54086076  0.43572362    -0.24400
C745        C  0.00756081  0.72681178  0.41279753    -0.11300
C746        C  0.99168261  0.74475603  0.41366317     0.11300
C747        C  0.97482324  0.74505087  0.43130268    -0.03100
C748        C  0.97536896  0.72786874  0.44838046    -0.05800
C749        C  0.99188888  0.71035566  0.44811331    -0.16600
C750        C  0.00795960  0.70945013  0.42966109     0.02300
C751        C  0.99295071  0.76254793  0.39530999     0.12300
C752        C  0.95624543  0.76326348  0.43197182     0.62900
H753        H  0.96284637  0.72801845  0.46221686     0.12300
C754        C  0.02498380  0.68996305  0.42719162     0.55000
H755        H  0.01981340  0.72663817  0.39871294     0.08100
C756        C  0.00926880  0.78045031  0.39600930    -0.05700
C757        C  0.01065451  0.79556568  0.37709751    -0.06400
C758        C  0.99662576  0.79322520  0.35720065    -0.16000
C759        C  0.97834385  0.77666528  0.35809333    -0.01600
C760        C  0.97792375  0.76090839  0.37648547    -0.09100
C761        C  0.02545020  0.78332071  0.41652904     0.65100
H762        H  0.02272327  0.80949351  0.37819640     0.10600
C763        C  0.95864709  0.77409683  0.34074608     0.63500
H764        H  0.96529819  0.74721891  0.37637827     0.07900
F765        F  0.04129096  0.69109599  0.44461289    -0.19500
F766        F  0.03643558  0.69079500  0.40623786    -0.15700
F767        F  0.01350973  0.66927114  0.42837886    -0.19200
F768        F  0.94255865  0.76171484  0.41244317    -0.22600
F769        F  0.96617320  0.78471278  0.43279083    -0.24100
F770        F  0.94214204  0.76085629  0.45108904    -0.18100
F771        F  0.96188703  0.75442230  0.32801585    -0.20600
F772        F  0.95614903  0.79219427  0.32575340    -0.21700
F773        F  0.93803753  0.77213213  0.35258818    -0.18900
F774        F  0.03910965  0.80262570  0.41446077    -0.19000
F775        F  0.03981897  0.76462155  0.41822922    -0.22800
F776        F  0.01290459  0.78522963  0.43669529    -0.24400
C777        C  0.97623247  0.75455563  0.62347326    -0.11300
C778        C  0.99279928  0.75577205  0.60617173     0.11300
C779        C  0.01059622  0.77208364  0.60769793    -0.03100
C780        C  0.01136254  0.78660410  0.62703347    -0.05800
C781        C  0.99507247  0.78534799  0.64520023    -0.16600
C782        C  0.97681959  0.76872651  0.64303814     0.02300
C783        C  0.99121706  0.73928330  0.58683041     0.12300
C784        C  0.02877879  0.77403235  0.58890091     0.62900
H785        H  0.02505111  0.79887071  0.62756103     0.12300
C786        C  0.95769477  0.76351531  0.66040928     0.55000
H787        H  0.96267592  0.74186229  0.62178151     0.08100
C788        C  0.99964031  0.71672271  0.58901245    -0.05700
C789        C  0.99851815  0.70229274  0.56969781    -0.06400
C790        C  0.98846387  0.70945134  0.54885768    -0.16000
C791        C  0.97917264  0.73167884  0.54692289    -0.01600
C792        C  0.98078600  0.74635422  0.56610317    -0.09100
C793        C  0.00949431  0.70786783  0.61169130     0.65100
H794        H  0.00517692  0.68505973  0.57079643     0.10600
C795        C  0.96836071  0.74001353  0.52452881     0.63500
H796        H  0.97405838  0.76355422  0.56507780     0.07900
F797        F  0.96132668  0.74196007  0.66953427    -0.19500
F798        F  0.93665681  0.76352335  0.64907238    -0.15700
F799        F  0.95579376  0.77849568  0.67850243    -0.19200
F800        F  0.01851170  0.78057533  0.56834834    -0.22600
F801        F  0.03952285  0.75323553  0.58579430    -0.24100
F802        F  0.04558772  0.78997511  0.59431211    -0.18100
F803        F  0.94919438  0.72693302  0.51928471    -0.20600
F804        F  0.98415318  0.73830619  0.50676370    -0.21700
F805        F  0.96144990  0.76256193  0.52601436    -0.18900
F806        F  0.01749662  0.68571938  0.60969629    -0.19000
F807        F  0.99261093  0.70800706  0.62848579    -0.22800
F808        F  0.02764520  0.72149064  0.61879625    -0.24400
C809        C  0.01025740  0.77571904  0.77032354    -0.11300
C810        C  0.99627600  0.75616560  0.76947016     0.11300
C811        C  0.98196484  0.75244205  0.75002091    -0.03100
C812        C  0.98211422  0.76860147  0.73213346    -0.05800
C813        C  0.99758673  0.78717022  0.73173324    -0.16600
C814        C  0.01182391  0.79103437  0.75145329     0.02300
C815        C  0.99776332  0.73900901  0.78841527     0.12300
C816        C  0.96755796  0.73082549  0.74743780     0.62900
H817        H  0.97082658  0.76605998  0.71747322     0.12300
C818        C  0.02933378  0.81028722  0.75261240     0.55000
H819        H  0.02067270  0.77835047  0.78565348     0.08100
C820        C  0.01592787  0.72292692  0.78944261    -0.05700
C821        C  0.01420985  0.70467905  0.80516580    -0.06400
C822        C  0.99474042  0.70169665  0.81916233    -0.16000
C823        C  0.97713509  0.71832040  0.81896090    -0.01600
C824        C  0.97929740  0.73717971  0.80394729    -0.09100
C825        C  0.03645908  0.72437419  0.77324538     0.65100
H826        H  0.02749884  0.69175991  0.80573485     0.10600
C827        C  0.95563331  0.71539648  0.83349518     0.63500
H828        H  0.96579080  0.74987061  0.80305116     0.07900
F829        F  0.04385866  0.80806854  0.77151965    -0.19500
F830        F  0.01821823  0.83096906  0.75460632    -0.15700
F831        F  0.04286889  0.81028944  0.73306014    -0.19200
F832        F  0.95100210  0.72981824  0.76450280    -0.22600
F833        F  0.98157598  0.71183722  0.74910799    -0.24100
F834        F  0.95639152  0.72990782  0.72626405    -0.18100
F835        F  0.96158231  0.71484353  0.85663080    -0.20600
F836        F  0.94462793  0.69522619  0.82767804    -0.21700
F837        F  0.94023742  0.73311579  0.83016201    -0.18900
F838        F  0.05147395  0.70629999  0.77640092    -0.19000
F839        F  0.04853478  0.74434214  0.77725088    -0.22800
F840        F  0.02905044  0.72404285  0.75050307    -0.24400
C841        C  0.97370878  0.39695588  0.61010631    -0.11300
C842        C  0.99464966  0.39489660  0.59832366     0.11300
C843        C  0.01317124  0.40957716  0.60402476    -0.03100
C844        C  0.01011710  0.42583945  0.62160193    -0.05800
C845        C  0.98913776  0.42817145  0.63352598    -0.16600
C846        C  0.97053845  0.41319523  0.62780273     0.02300
C847        C  0.99640659  0.37780083  0.57939469     0.12300
C848        C  0.03599222  0.40831513  0.59130450     0.62900
H849        H  0.02419119  0.43725134  0.62585061     0.12300
C850        C  0.94751394  0.41384733  0.64025242     0.55000
H851        H  0.95973392  0.38569380  0.60511996     0.08100
C852        C  0.00087593  0.35439647  0.58375896    -0.05700
C853        C  0.00291737  0.33944331  0.56483778    -0.06400
C854        C  0.00010595  0.34711515  0.54202760    -0.16000
C855        C  0.99529364  0.37036777  0.53766494    -0.01600
C856        C  0.99344313  0.38538773  0.55653578    -0.09100
C857        C  0.00309881  0.34521420  0.60824482     0.65100
H858        H  0.00620607  0.32145863  0.56770264     0.10600
C859        C  0.99251445  0.37919332  0.51314441     0.63500
H860        H  0.98972858  0.40327452  0.55362481     0.07900
F861        F  0.93296073  0.39641087  0.63318940    -0.19500
F862        F  0.93653564  0.43429546  0.63570045    -0.15700
F863        F  0.95092172  0.41143909  0.66381486    -0.19200
F864        F  0.03280554  0.41428461  0.56839369    -0.22600
F865        F  0.04468639  0.38640044  0.59245251    -0.24100
F866        F  0.05227432  0.42295445  0.60067047    -0.18100
F867        F  0.98858278  0.40248785  0.51259515    -0.20600
F868        F  0.97407405  0.36842897  0.50257824    -0.21700
F869        F  0.01233872  0.37479903  0.50073430    -0.18900
F870        F  0.00824848  0.32214477  0.60852289    -0.19000
F871        F  0.98257757  0.34821009  0.61988804    -0.22800
F872        F  0.02044401  0.35663912  0.61989469    -0.24400
C873        C  0.00481006  0.54837742  0.60325111    -0.11300
C874        C  0.98707649  0.56454666  0.60400496     0.11300
C875        C  0.96947759  0.56221354  0.62076620    -0.03100
C876        C  0.97035991  0.54366549  0.63636089    -0.05800
C877        C  0.98825646  0.52752162  0.63584574    -0.16600
C878        C  0.00590481  0.52995237  0.61896564     0.02300
C879        C  0.98665659  0.58276027  0.58589357     0.12300
C880        C  0.94982121  0.57922447  0.62211824     0.62900
H881        H  0.95702647  0.54169759  0.64926825     0.12300
C882        C  0.02554146  0.51297182  0.61696307     0.55000
H883        H  0.01783634  0.55031959  0.59002381     0.08100
C884        C  0.00095044  0.60239912  0.58692787    -0.05700
C885        C  0.00029461  0.61816009  0.56845353    -0.06400
C886        C  0.98579408  0.61498026  0.54920045    -0.16000
C887        C  0.97135599  0.59540665  0.54831694    -0.01600
C888        C  0.97229397  0.57950501  0.56662350    -0.09100
C889        C  0.01706759  0.60652712  0.60724768     0.65100
H890        H  0.01122690  0.63317194  0.56886239     0.10600
C891        C  0.95558050  0.59085497  0.52783891     0.63500
H892        H  0.96181818  0.56418961  0.56603988     0.07900
F893        F  0.03982203  0.51471401  0.63605659    -0.19500
F894        F  0.03880722  0.51691317  0.59749385    -0.15700
F895        F  0.01684602  0.49100815  0.61547978    -0.19200
F896        F  0.93681495  0.57834361  0.60209173    -0.22600
F897        F  0.95846735  0.60106860  0.62480177    -0.24100
F898        F  0.93537501  0.57469142  0.64057463    -0.18100
F899        F  0.94483456  0.56978898  0.52948629    -0.20600
F900        F  0.96819304  0.59121425  0.50758580    -0.21700
F901        F  0.93860309  0.60733087  0.52679682    -0.18900
F902        F  0.02783743  0.62760691  0.60580456    -0.19000
F903        F  0.03391361  0.58991472  0.60774133    -0.22800
F904        F  0.00492052  0.60582209  0.62774832    -0.24400
C905        C  0.99402165  0.53923816  0.77172808    -0.11300
C906        C  0.98180499  0.55934702  0.76693073     0.11300
C907        C  0.97011821  0.56166910  0.74551260    -0.03100
C908        C  0.97137189  0.54375153  0.72939158    -0.05800
C909        C  0.98408356  0.52389610  0.73393928    -0.16600
C910        C  0.99501415  0.52118432  0.75571573     0.02300
C911        C  0.98337645  0.57851968  0.78371948     0.12300
C912        C  0.95669301  0.58313289  0.73958196     0.62900
H913        H  0.96291314  0.54536649  0.71274861     0.12300
C914        C  0.00676908  0.49899969  0.76238821     0.55000
H915        H  0.00304159  0.53793040  0.78809304     0.08100
C916        C  0.97029518  0.57947718  0.80420824    -0.05700
C917        C  0.97283428  0.59857522  0.81884358    -0.06400
C918        C  0.98824865  0.61673393  0.81395563    -0.16000
C919        C  0.00272473  0.61444234  0.79388278    -0.01600
C920        C  0.99933516  0.59572071  0.77909793    -0.09100
C921        C  0.95380743  0.56030167  0.81062175     0.65100
H922        H  0.96307415  0.59868944  0.83457851     0.10600
C923        C  0.02193286  0.63057161  0.78597449     0.63500
H924        H  0.00969233  0.59424896  0.76358130     0.07900
F925        F  0.01402503  0.49910323  0.78521180    -0.19500
F926        F  0.02581965  0.49544439  0.74861148    -0.15700
F927        F  0.99148835  0.48106112  0.75963942    -0.19200
F928        F  0.97154716  0.60153269  0.73789776    -0.22600
F929        F  0.94062492  0.58745925  0.75659011    -0.24100
F930        F  0.94508568  0.58108282  0.71873976    -0.18100
F931        F  0.04141989  0.61795077  0.78097496    -0.20600
F932        F  0.02861355  0.64679276  0.80176379    -0.21700
F933        F  0.01490263  0.64159780  0.76599275    -0.18900
F934        F  0.94186037  0.56495962  0.83073606    -0.19000
F935        F  0.96595504  0.54031036  0.81401188    -0.22800
F936        F  0.93790703  0.55705047  0.79309181    -0.24400
C937        C  0.99994509  0.39122689  0.74862634    -0.11300
C938        C  0.98714605  0.39501529  0.76876593     0.11300
C939        C  0.97368836  0.41506497  0.77069492    -0.03100
C940        C  0.97303846  0.43044146  0.75192523    -0.05800
C941        C  0.98622534  0.42691346  0.73195591    -0.16600
C942        C  0.99977787  0.40687500  0.73009895     0.02300
C943        C  0.98818444  0.37756044  0.78751028     0.12300
C944        C  0.96049075  0.42041103  0.79266070     0.62900
H945        H  0.96280220  0.44582146  0.75302018     0.12300
C946        C  0.01361768  0.40173535  0.70848808     0.55000
H947        H  0.01026582  0.37588572  0.74765000     0.08100
C948        C  0.97455276  0.35762220  0.78691113    -0.05700
C949        C  0.97660269  0.34178754  0.80506956    -0.06400
C950        C  0.99227872  0.34456338  0.82369144    -0.16000
C951        C  0.00419190  0.36600396  0.82523639    -0.01600
C952        C  0.00282856  0.38134049  0.80638805    -0.09100
C953        C  0.95824611  0.35280950  0.76687471     0.65100
H954        H  0.96614779  0.32647112  0.80450815     0.10600
C955        C  0.01626871  0.37484284  0.84677827     0.63500
H956        H  0.01283904  0.39698803  0.80659846     0.07900
F957        F  0.02239000  0.37978198  0.70881395    -0.19500
F958        F  0.03193398  0.41676799  0.70678957    -0.15700
F959        F  0.99974549  0.40382606  0.68910827    -0.19200
F960        F  0.97573339  0.42306236  0.81086792    -0.22600
F961        F  0.94536743  0.40286188  0.79775619    -0.24100
F962        F  0.94790194  0.44035127  0.79059921    -0.18100
F963        F  0.01561341  0.39847256  0.84761594    -0.20600
F964        F  0.03917170  0.36843149  0.84661255    -0.21700
F965        F  0.00545461  0.36718079  0.86656569    -0.18900
F966        F  0.94556015  0.33305376  0.77034167    -0.19000
F967        F  0.97070646  0.35024558  0.74673273    -0.22800
F968        F  0.94294899  0.37065394  0.76415247    -0.24400
C969        C  0.90001018  0.91407053  0.29135331    -0.11300
C970        C  0.91428871  0.90813239  0.31003195     0.11300
C971        C  0.91044053  0.91809167  0.33194650    -0.03100
C972        C  0.89297286  0.93443608  0.33413303    -0.05800
C973        C  0.87888103  0.94088129  0.31541238    -0.16600
C974        C  0.88171126  0.92968436  0.29384271     0.02300
C975        C  0.93262405  0.89074206  0.30669728     0.12300
C976        C  0.92469639  0.91151009  0.35303518     0.62900
H977        H  0.89054476  0.94278628  0.35061160     0.12300
C978        C  0.86466945  0.93252198  0.27409183     0.55000
H979        H  0.90308463  0.90605657  0.27479653     0.08100
C980        C  0.92763136  0.86710606  0.30696321    -0.05700
C981        C  0.94604412  0.85160011  0.30778522    -0.06400
C982        C  0.96915313  0.85884708  0.30871355    -0.16000
C983        C  0.97412128  0.88256718  0.30772892    -0.01600
C984        C  0.95564466  0.89808633  0.30594687    -0.09100
C985        C  0.90297405  0.85830866  0.30755806     0.65100
H986        H  0.94245375  0.83352507  0.30909320     0.10600
C987        C  0.99841684  0.89167112  0.31080954     0.63500
H988        H  0.95893979  0.91629021  0.30559326     0.07900
F989        F  0.86625853  0.91471818  0.25847688    -0.19500
F990        F  0.86885588  0.95257355  0.26225377    -0.15700
F991        F  0.84243885  0.93256770  0.28255414    -0.19200
F992        F  0.94728478  0.91836678  0.35005290    -0.22600
F993        F  0.92402220  0.88812493  0.35625194    -0.24100
F994        F  0.91654518  0.92162524  0.37300335    -0.18100
F995        F  0.01225877  0.88438741  0.29295230    -0.20600
F996        F  0.00721948  0.88401849  0.33163635    -0.21700
F997        F  0.99904386  0.91530335  0.31102248    -0.18900
F998        F  0.90203778  0.83469911  0.30824230    -0.19000
F999        F  0.89126206  0.86543043  0.28801427    -0.22800
F1000       F  0.89187469  0.86652091  0.32693561    -0.24400
C1001       C  0.92510169  0.03117140  0.31002101    -0.11300
C1002       C  0.91802256  0.05397178  0.30945634     0.11300
C1003       C  0.89436181  0.05928998  0.31169054    -0.03100
C1004       C  0.87862663  0.04138632  0.31545161    -0.05800
C1005       C  0.88573331  0.01853104  0.31668131    -0.16600
C1006       C  0.90947536  0.01331384  0.31436509     0.02300
C1007       C  0.93607060  0.07193949  0.30841862     0.12300
C1008       C  0.88583714  0.08375404  0.31052655     0.62900
H1009       H  0.86057508  0.04514878  0.31795139     0.12300
C1010       C  0.91867351  0.98943944  0.31820731     0.55000
H1011       H  0.94327875  0.02760498  0.30796654     0.08100
C1012       C  0.94963309  0.07745298  0.32796491    -0.05700
C1013       C  0.96604908  0.09493853  0.32600691    -0.06400
C1014       C  0.96897897  0.10764452  0.30552172    -0.16000
C1015       C  0.95551233  0.10173684  0.28572470    -0.01600
C1016       C  0.93963842  0.08356070  0.28756371    -0.09100
C1017       C  0.94676513  0.06501800  0.35089686     0.65100
H1018       H  0.97686380  0.09887794  0.34075734     0.10600
C1019       C  0.95699953  0.11422356  0.26274501     0.63500
H1020       H  0.92959557  0.07834278  0.27266030     0.07900
F1021       F  0.94252484  0.98894269  0.31853095    -0.19500
F1022       F  0.91129562  0.97530056  0.30064933    -0.15700
F1023       F  0.91104042  0.98130336  0.33928512    -0.19200
F1024       F  0.89063398  0.09294760  0.28904558    -0.22600
F1025       F  0.89658757  0.09670145  0.32737560    -0.24100
F1026       F  0.86227650  0.08512063  0.31390521    -0.18100
F1027       F  0.93759211  0.11037980  0.24929455    -0.20600
F1028       F  0.97583368  0.10658197  0.25048765    -0.21700
F1029       F  0.95859742  0.13744582  0.26611695    -0.18900
F1030       F  0.95986380  0.07485715  0.36828335    -0.19000
F1031       F  0.95366536  0.04258043  0.34866388    -0.22800
F1032       F  0.92395983  0.06556656  0.35770996    -0.24400
C1033       C  0.57962060  0.99700578  0.24050901    -0.11300
C1034       C  0.59431731  0.97811824  0.24023004     0.11300
C1035       C  0.59071973  0.95985532  0.25580613    -0.03100
C1036       C  0.57232416  0.96128301  0.27151331    -0.05800
C1037       C  0.55770425  0.98041337  0.27217530    -0.16600
C1038       C  0.56103981  0.99839172  0.25595439     0.02300
C1039       C  0.61431313  0.97884214  0.22442892     0.12300
C1040       C  0.60657729  0.93925134  0.25610267     0.62900
H1041       H  0.56957495  0.94761207  0.28383697     0.12300
C1042       C  0.54475609  0.01858042  0.25418983     0.55000
H1043       H  0.58301460  0.01082310  0.22850524     0.08100
C1044       C  0.61263363  0.97257319  0.20096549    -0.05700
C1045       C  0.63255515  0.97376200  0.18724364    -0.06400
C1046       C  0.65387927  0.98189525  0.19589457    -0.16000
C1047       C  0.65396378  0.99188195  0.21850240    -0.01600
C1048       C  0.63472023  0.98848210  0.23277940    -0.09100
C1049       C  0.58972352  0.96552206  0.19030555     0.65100
H1050       H  0.63117373  0.96914518  0.16923819     0.10600
C1051       C  0.67255506  0.00774463  0.22797538     0.63500
H1052       H  0.63507867  0.99459976  0.25046381     0.07900
F1053       F  0.54937516  0.03201582  0.23502121    -0.19500
F1054       F  0.54687397  0.03222148  0.27355298    -0.15700
F1055       F  0.52232607  0.01077878  0.25221214    -0.19200
F1056       F  0.62871116  0.94602552  0.26176700    -0.22600
F1057       F  0.60685043  0.92905031  0.23459065    -0.24100
F1058       F  0.59957506  0.92302908  0.27205824    -0.18100
F1059       F  0.66275685  0.02457118  0.24152204    -0.20600
F1060       F  0.68429350  0.01892873  0.21062622    -0.21700
F1061       F  0.68776471  0.99560289  0.24169686    -0.18900
F1062       F  0.59202344  0.95926203  0.16736724    -0.19000
F1063       F  0.57449929  0.98359355  0.19129496    -0.22800
F1064       F  0.58046156  0.94720785  0.20218385    -0.24400
C1065       C  0.77736162  0.97271383  0.20116151    -0.11300
C1066       C  0.77613958  0.98784941  0.21990440     0.11300
C1067       C  0.75759235  0.00341601  0.22117837    -0.03100
C1068       C  0.74033880  0.00241753  0.20415693    -0.05800
C1069       C  0.73983406  0.98526802  0.18715190    -0.16600
C1070       C  0.75918617  0.97077082  0.18496547     0.02300
C1071       C  0.79307582  0.98556958  0.23917974     0.12300
C1072       C  0.75508549  0.01992430  0.24128712     0.62900
H1073       H  0.72588977  0.01392993  0.20517295     0.12300
C1074       C  0.76040906  0.95298941  0.16616604     0.55000
H1075       H  0.79209508  0.96146909  0.20015818     0.08100
C1076       C  0.79081567  0.96813983  0.25604209    -0.05700
C1077       C  0.80558084  0.96840015  0.27532852    -0.06400
C1078       C  0.82219760  0.98557753  0.27856274    -0.16000
C1079       C  0.82443317  0.00304836  0.26170423    -0.01600
C1080       C  0.81023720  0.00229291  0.24185391    -0.09100
C1081       C  0.77244629  0.94968278  0.25405081     0.65100
H1082       H  0.80378444  0.95544969  0.28859886     0.10600
C1083       C  0.84016355  0.02337825  0.26551830     0.63500
H1084       H  0.81158048  0.01545958  0.22875567     0.07900
F1085       F  0.77996359  0.93963734  0.16809664    -0.19500
F1086       F  0.76103745  0.96383349  0.14494996    -0.15700
F1087       F  0.74141463  0.93875238  0.16740596    -0.19200
F1088       F  0.77327469  0.03517546  0.24148637    -0.22600
F1089       F  0.75477712  0.00799104  0.26194417    -0.24100
F1090       F  0.73488498  0.03238371  0.23985773    -0.18100
F1091       F  0.83837819  0.03924921  0.24783384    -0.20600
F1092       F  0.86281138  0.01635226  0.26669517    -0.21700
F1093       F  0.83418199  0.03406070  0.28589320    -0.18900
F1094       F  0.77213509  0.93552336  0.27324702    -0.19000
F1095       F  0.77667882  0.93632691  0.23488170    -0.22800
F1096       F  0.75089177  0.95948370  0.25193604    -0.24400
C1097       C  0.08363694  0.09668260  0.29404404    -0.11300
C1098       C  0.07545960  0.07414256  0.29385945     0.11300
C1099       C  0.05140386  0.06994624  0.29416855    -0.03100
C1100       C  0.03632419  0.08862021  0.29589060    -0.05800
C1101       C  0.04457029  0.11109128  0.29765170    -0.16600
C1102       C  0.06854823  0.11538014  0.29556707     0.02300
C1103       C  0.09240084  0.05544024  0.29713338     0.12300
C1104       C  0.04172650  0.04581611  0.29363703     0.62900
H1105       H  0.01794236  0.08568615  0.29719191     0.12300
C1106       C  0.07832152  0.13944151  0.29481450     0.55000
H1107       H  0.10208966  0.09950166  0.29407225     0.08100
C1108       C  0.10594517  0.04642804  0.27906270    -0.05700
C1109       C  0.12158478  0.02870781  0.28423658    -0.06400
C1110       C  0.12403501  0.01988945  0.30678866    -0.16000
C1111       C  0.10980301  0.02877363  0.32475461    -0.01600
C1112       C  0.09508491  0.04701908  0.31958126    -0.09100
C1113       C  0.10420074  0.05582598  0.25464073     0.65100
H1114       H  0.13252914  0.02204707  0.27073571     0.10600
C1115       C  0.10847664  0.01991371  0.34954997     0.63500
H1116       H  0.08482695  0.05446636  0.33327047     0.07900
F1117       F  0.10088552  0.13960310  0.28712156    -0.19500
F1118       F  0.07807365  0.14896118  0.31661781    -0.15700
F1119       F  0.06547029  0.15281074  0.27986139    -0.19200
F1120       F  0.04751194  0.03440609  0.31375545    -0.22600
F1121       F  0.05057680  0.03408363  0.27498440    -0.24100
F1122       F  0.01794716  0.04572216  0.29164753    -0.18100
F1123       F  0.11905868  0.03544804  0.36410931    -0.20600
F1124       F  0.11833165  0.99876712  0.35288766    -0.21700
F1125       F  0.08560125  0.01782999  0.35597190    -0.18900
F1126       F  0.11845639  0.04428615  0.23952518    -0.19000
F1127       F  0.11051675  0.07858974  0.25443487    -0.22800
F1128       F  0.08183497  0.05383921  0.24662407    -0.24400
C1129       C  0.08070033  0.86650765  0.29154309    -0.11300
C1130       C  0.08508627  0.88143107  0.30994808     0.11300
C1131       C  0.07241137  0.87910007  0.33070098    -0.03100
C1132       C  0.05439376  0.86306156  0.33156561    -0.05800
C1133       C  0.04894372  0.84897313  0.31267130    -0.16600
C1134       C  0.06337204  0.84961313  0.29287931     0.02300
C1135       C  0.10120828  0.90089551  0.30642286     0.12300
C1136       C  0.07765300  0.89371978  0.35178103     0.62900
H1137       H  0.04391519  0.86183226  0.34697404     0.12300
C1138       C  0.06194155  0.83158190  0.27418688     0.55000
H1139       H  0.09085675  0.86835575  0.27597757     0.08100
C1140       C  0.12538620  0.89898359  0.30859293    -0.05700
C1141       C  0.13878676  0.91909043  0.30809150    -0.06400
C1142       C  0.12876788  0.94091440  0.30607912    -0.16000
C1143       C  0.10447604  0.94249340  0.30275187    -0.01600
C1144       C  0.09136913  0.92226991  0.30229962    -0.09100
C1145       C  0.13688136  0.87594105  0.31184697     0.65100
H1146       H  0.15730026  0.91799777  0.31018188     0.10600
C1147       C  0.09172457  0.96505032  0.30172648     0.63500
H1148       H  0.07283885  0.92298962  0.30014655     0.07900
F1149       F  0.08006899  0.83329707  0.25877011    -0.19500
F1150       F  0.04176120  0.83367251  0.26175118    -0.15700
F1151       F  0.06298104  0.81023740  0.28432030    -0.19200
F1152       F  0.07213221  0.91623067  0.34733662    -0.22600
F1153       F  0.10079190  0.89230748  0.35730995    -0.24100
F1154       F  0.06523609  0.88667304  0.37092257    -0.18100
F1155       F  0.09772571  0.97710989  0.28215937    -0.20600
F1156       F  0.09684915  0.97757885  0.32113168    -0.21700
F1157       F  0.06804483  0.96210968  0.30118726    -0.18900
F1158       F  0.16047677  0.87804872  0.31479488    -0.19000
F1159       F  0.13292746  0.86251918  0.29261874    -0.22800
F1160       F  0.12807927  0.86503103  0.33111631    -0.24400
C1161       C  0.40306535  0.98519340  0.20100832    -0.11300
C1162       C  0.39952506  0.98753422  0.22473370     0.11300
C1163       C  0.37706413  0.99170040  0.23288495    -0.03100
C1164       C  0.35860193  0.99174339  0.21697345    -0.05800
C1165       C  0.36148405  0.98729310  0.19304301    -0.16600
C1166       C  0.38481395  0.98592614  0.18486607     0.02300
C1167       C  0.41987557  0.98652354  0.24053488     0.12300
C1168       C  0.37267021  0.99628566  0.25836493     0.62900
H1169       H  0.34191867  0.99625171  0.22349788     0.12300
C1170       C  0.39250400  0.98555818  0.15978707     0.55000
H1171       H  0.42060806  0.98315934  0.19493534     0.08100
C1172       C  0.42908863  0.96557348  0.24835594    -0.05700
C1173       C  0.44783820  0.96589563  0.26386332    -0.06400
C1174       C  0.45770950  0.98641433  0.27196567    -0.16000
C1175       C  0.44855959  0.00753755  0.26362705    -0.01600
C1176       C  0.42999214  0.00702938  0.24779676    -0.09100
C1177       C  0.41899487  0.94294314  0.24042793     0.65100
H1178       H  0.45474525  0.94984857  0.27000289     0.10600
C1179       C  0.45777230  0.03065386  0.27133304     0.63500
H1180       H  0.42278863  0.02277511  0.24116295     0.07900
F1181       F  0.40183016  0.96442499  0.15490691    -0.19500
F1182       F  0.40935948  0.00200450  0.15647522    -0.15700
F1183       F  0.37530092  0.99011345  0.14417129    -0.19200
F1184       F  0.38338210  0.01640319  0.26479726    -0.22600
F1185       F  0.38128056  0.97861996  0.27168668    -0.24100
F1186       F  0.34941081  0.99829724  0.26312794    -0.18100
F1187       F  0.48087746  0.03253076  0.26589276    -0.20600
F1188       F  0.45479979  0.03313770  0.29491117    -0.21700
F1189       F  0.44643156  0.04856763  0.26060703    -0.18900
F1190       F  0.42999710  0.92453609  0.25061752    -0.19000
F1191       F  0.42124988  0.94093713  0.21674211    -0.22800
F1192       F  0.39591184  0.94177913  0.24612407    -0.24400
C1193       C  0.25155523  0.95826695  0.21796461    -0.11300
C1194       C  0.23346628  0.97292063  0.21183582     0.11300
C1195       C  0.23487612  0.98534549  0.19086063    -0.03100
C1196       C  0.25542741  0.98437807  0.17802380    -0.05800
C1197       C  0.27461853  0.97194621  0.18554003    -0.16600
C1198       C  0.27168870  0.95674108  0.20456656     0.02300
C1199       C  0.21431425  0.97611494  0.22862650     0.12300
C1200       C  0.21499040  0.99989939  0.18223934     0.62900
H1201       H  0.25695451  0.99439583  0.16271015     0.12300
C1202       C  0.28874918  0.93820016  0.21106293     0.55000
H1203       H  0.24997548  0.94796658  0.23348555     0.08100
C1204       C  0.19849727  0.95860203  0.23485866    -0.05700
C1205       C  0.18407016  0.96196979  0.25415702    -0.06400
C1206       C  0.18419334  0.98256194  0.26652181    -0.16000
C1207       C  0.19833303  0.00075012  0.25873303    -0.01600
C1208       C  0.21395029  0.99677108  0.24077259    -0.09100
C1209       C  0.19669012  0.93591225  0.22240056     0.65100
H1210       H  0.17324437  0.94806040  0.26015874     0.10600
C1211       C  0.19809820  0.02443734  0.26915636     0.63500
H1212       H  0.22633524  0.00996860  0.23638589     0.07900
F1213       F  0.27709423  0.91775789  0.21400882    -0.19500
F1214       F  0.29951724  0.94380351  0.23165299    -0.15700
F1215       F  0.30520087  0.93473861  0.19421541    -0.19200
F1216       F  0.21190117  0.01845054  0.19658196    -0.22600
F1217       F  0.19499783  0.98701778  0.18179268    -0.24100
F1218       F  0.21888904  0.00810520  0.16012119    -0.18100
F1219       F  0.21765156  0.02744889  0.28248892    -0.20600
F1220       F  0.17880321  0.02823275  0.28249331    -0.21700
F1221       F  0.19810038  0.04060324  0.25167199    -0.18900
F1222       F  0.17380832  0.93134954  0.21740853    -0.19000
F1223       F  0.20509189  0.91881295  0.23659693    -0.22800
F1224       F  0.20868016  0.93558836  0.20179798    -0.24400
C1225       C  0.40585532  0.96812499  0.43816365    -0.11300
C1226       C  0.40285294  0.98177822  0.41848151     0.11300
C1227       C  0.38216874  0.99415750  0.41538315    -0.03100
C1228       C  0.36508686  0.99259913  0.43251963    -0.05800
C1229       C  0.36792748  0.97868232  0.45211447    -0.16600
C1230       C  0.38877159  0.96649174  0.45526853     0.02300
C1231       C  0.42160628  0.98229950  0.40117223     0.12300
C1232       C  0.37795032  0.00841491  0.39381072     0.62900
H1233       H  0.34905326  0.00181628  0.43047127     0.12300
C1234       C  0.39344935  0.95274451  0.47704287     0.55000
H1235       H  0.42183730  0.95878510  0.44000732     0.08100
C1236       C  0.44108543  0.99667384  0.40361300    -0.05700
C1237       C  0.45829740  0.99597737  0.38655724    -0.06400
C1238       C  0.45693367  0.98082122  0.36781069    -0.16000
C1239       C  0.43734941  0.96635889  0.36548657    -0.01600
C1240       C  0.41998224  0.96744637  0.38232546    -0.09100
C1241       C  0.44397906  0.01209699  0.42450786     0.65100
H1242       H  0.47338787  0.00678405  0.38814188     0.10600
C1243       C  0.43439204  0.95015194  0.34518985     0.63500
H1244       H  0.40498259  0.95646627  0.38111017     0.07900
F1245       F  0.41564904  0.94416552  0.47751198    -0.19500
F1246       F  0.37834386  0.93452993  0.47844006    -0.15700
F1247       F  0.39075287  0.96655115  0.49616149    -0.19200
F1248       F  0.37630136  0.99424937  0.37479694    -0.22600
F1249       F  0.39586524  0.02364601  0.39044876    -0.24100
F1250       F  0.35776142  0.02084161  0.39533851    -0.18100
F1251       F  0.45041179  0.93278370  0.34667049    -0.20600
F1252       F  0.43724334  0.96188784  0.32461073    -0.21700
F1253       F  0.41271827  0.94022726  0.34482002    -0.18900
F1254       F  0.46305475  0.02618334  0.42244664    -0.19000
F1255       F  0.44673023  0.99889262  0.44415259    -0.22800
F1256       F  0.42482341  0.02579586  0.42714638    -0.24400
C1257       C  0.23359674  0.99525831  0.42973730    -0.11300
C1258       C  0.23581636  0.97991258  0.41136290     0.11300
C1259       C  0.25489464  0.96500429  0.41050858    -0.03100
C1260       C  0.27095212  0.96552939  0.42874822    -0.05800
C1261       C  0.26891268  0.98100302  0.44718445    -0.16600
C1262       C  0.24987078  0.99616724  0.44777869     0.02300
C1263       C  0.21889696  0.98135334  0.39223152     0.12300
C1264       C  0.25854877  0.94911447  0.39011087     0.62900
H1265       H  0.28562380  0.95415253  0.42847136     0.12300
C1266       C  0.24638008  0.01299990  0.46738909     0.55000
H1267       H  0.21906993  0.00682361  0.42956930     0.08100
C1268       C  0.19750538  0.96990594  0.39273003    -0.05700
C1269       C  0.18280767  0.97186319  0.37344264    -0.06400
C1270       C  0.18861590  0.98514463  0.35382214    -0.16000
C1271       C  0.20847574  0.99963822  0.35563520    -0.01600
C1272       C  0.22385615  0.99624357  0.37407353    -0.09100
C1273       C  0.19009205  0.95609590  0.41371825     0.65100
H1274       H  0.16627755  0.96348991  0.37417843     0.10600
C1275       C  0.21456597  0.01942823  0.33971644     0.63500
H1276       H  0.23971242  0.00608196  0.37482695     0.07900
F1277       F  0.22546256  0.02418298  0.46561164    -0.19500
F1278       F  0.26362355  0.02931494  0.46699474    -0.15700
F1279       F  0.24678084  0.00167318  0.48837548    -0.19200
F1280       F  0.26172175  0.96181832  0.37019792    -0.22600
F1281       F  0.23959367  0.93507699  0.38720537    -0.24100
F1282       F  0.27769487  0.93538141  0.39317152    -0.18100
F1283       F  0.22034838  0.03831791  0.35289962    -0.20600
F1284       F  0.19682012  0.02606183  0.32546879    -0.21700
F1285       F  0.23339699  0.01357240  0.32644025    -0.18900
F1286       F  0.16898346  0.94553986  0.41030813    -0.19000
F1287       F  0.18821004  0.97034229  0.43263016    -0.22800
F1288       F  0.20612509  0.93935492  0.41856661    -0.24400
C1289       C  0.07517241  0.09317448  0.70886345    -0.11300
C1290       C  0.07597891  0.07994121  0.68872466     0.11300
C1291       C  0.06134846  0.08539390  0.66993334    -0.03100
C1292       C  0.04626452  0.10397908  0.67207749    -0.05800
C1293       C  0.04561804  0.11776359  0.69201115    -0.16600
C1294       C  0.06046357  0.11224666  0.71077521     0.02300
C1295       C  0.09165191  0.05988157  0.68794084     0.12300
C1296       C  0.06175019  0.07172667  0.64759772     0.62900
H1297       H  0.03472569  0.10793966  0.65794647     0.12300
C1298       C  0.06101435  0.12610420  0.73277151     0.55000
H1299       H  0.08618567  0.08832850  0.72319526     0.08100
C1300       C  0.11526425  0.06191267  0.68240671    -0.05700
C1301       C  0.12835343  0.04189133  0.67982539    -0.06400
C1302       C  0.11862659  0.01994575  0.68217956    -0.16000
C1303       C  0.09485485  0.01807174  0.68817088    -0.01600
C1304       C  0.08207155  0.03822073  0.69149209    -0.09100
C1305       C  0.12650303  0.08511599  0.67895745     0.65100
H1306       H  0.14640258  0.04327241  0.67543932     0.10600
C1307       C  0.08211453  0.99540890  0.68925827     0.63500
H1308       H  0.06399474  0.03730621  0.69600276     0.07900
F1309       F  0.08020852  0.12114477  0.74611780    -0.19500
F1310       F  0.04173672  0.12096575  0.74570038    -0.15700
F1311       F  0.06166258  0.14916142  0.72762753    -0.19200
F1312       F  0.05415589  0.04971892  0.65169522    -0.22600
F1313       F  0.08389570  0.07096201  0.63891448    -0.24100
F1314       F  0.04771943  0.08125287  0.63077112    -0.18100
F1315       F  0.08922972  0.98278416  0.70809170    -0.20600
F1316       F  0.08594114  0.98340674  0.66923519    -0.21700
F1317       F  0.05853123  0.99829653  0.69124257    -0.18900
F1318       F  0.14934109  0.08321383  0.67240906    -0.19000
F1319       F  0.12573758  0.09730231  0.69936385    -0.22800
F1320       F  0.11503386  0.09720425  0.66192535    -0.24400
C1321       C  0.07553392  0.86422850  0.68823387    -0.11300
C1322       C  0.06728572  0.88628721  0.69227966     0.11300
C1323       C  0.04349926  0.88963887  0.69643146    -0.03100
C1324       C  0.02874672  0.87048230  0.69658205    -0.05800
C1325       C  0.03691187  0.84839943  0.69192693    -0.16600
C1326       C  0.06091188  0.84508073  0.68839922     0.02300
C1327       C  0.08368224  0.90561446  0.68941730     0.12300
C1328       C  0.03356810  0.91342864  0.69936893     0.62900
H1329       H  0.01040190  0.87283500  0.69888425     0.12300
C1330       C  0.07208752  0.82202346  0.68424659     0.55000
H1331       H  0.09370406  0.86200025  0.68457294     0.08100
C1332       C  0.09873405  0.91297137  0.70719876    -0.05700
C1333       C  0.11429290  0.93092063  0.70252059    -0.06400
C1334       C  0.11566005  0.94122683  0.68059948    -0.16000
C1335       C  0.10024640  0.93378093  0.66278725    -0.01600
C1336       C  0.08501676  0.91573277  0.66756988    -0.09100
C1337       C  0.09890657  0.90135852  0.73068907     0.65100
H1338       H  0.12616342  0.93646947  0.71579747     0.10600
C1339       C  0.09836889  0.94389673  0.63853218     0.63500
H1340       H  0.07368930  0.90949223  0.65401369     0.07900
F1341       F  0.09203620  0.82031969  0.69730275    -0.19500
F1342       F  0.07777078  0.82019706  0.66112853    -0.15700
F1343       F  0.05815896  0.80383054  0.69027420    -0.19200
F1344       F  0.03632486  0.92573395  0.67914253    -0.22600
F1345       F  0.04473802  0.92471845  0.71711733    -0.24100
F1346       F  0.01028791  0.91277490  0.70450053    -0.18100
F1347       F  0.10744123  0.92861061  0.62283921    -0.20600
F1348       F  0.10928999  0.96466452  0.63587914    -0.21700
F1349       F  0.07539250  0.94737797  0.63310160    -0.18900
F1350       F  0.11468377  0.91131403  0.74559943    -0.19000
F1351       F  0.10472628  0.87863732  0.72818603    -0.22800
F1352       F  0.07738388  0.90274262  0.74070026    -0.24400
C1353       C  0.21422424  0.96323237  0.61407476    -0.11300
C1354       C  0.21108683  0.97893054  0.59620656     0.11300
C1355       C  0.19118658  0.99265708  0.59587681    -0.03100
C1356       C  0.17604073  0.99159120  0.61484707    -0.05800
C1357       C  0.17988288  0.97704652  0.63408472    -0.16600
C1358       C  0.19871647  0.96121578  0.63257933     0.02300
C1359       C  0.22882943  0.97973814  0.57779013     0.12300
C1360       C  0.18559005  0.00775369  0.57520039     0.62900
H1361       H  0.16064627  0.00169301  0.61395027     0.12300
C1362       C  0.20421550  0.94158304  0.64909979     0.55000
H1363       H  0.22909736  0.95206584  0.61336962     0.08100
C1364       C  0.24887090  0.99336419  0.57998709    -0.05700
C1365       C  0.26579789  0.99208160  0.56272001    -0.06400
C1366       C  0.26395685  0.97673448  0.54416291    -0.16000
C1367       C  0.24399898  0.96273035  0.54221994    -0.01600
C1368       C  0.22659563  0.96477429  0.55903306    -0.09100
C1369       C  0.25290249  0.00830949  0.60107138     0.65100
H1370       H  0.28120245  0.00246645  0.56412160     0.10600
C1371       C  0.24093498  0.94566946  0.52269720     0.63500
H1372       H  0.21132162  0.95414654  0.55813091     0.07900
F1373       F  0.22531893  0.94567598  0.65949749    -0.19500
F1374       F  0.20575284  0.92158736  0.63649400    -0.15700
F1375       F  0.18829356  0.93774061  0.66622463    -0.19200
F1376       F  0.18157968  0.99420563  0.55606511    -0.22600
F1377       F  0.20372225  0.02235359  0.57049839    -0.24100
F1378       F  0.16619312  0.02093318  0.57893566    -0.18100
F1379       F  0.25698325  0.92840793  0.52492905    -0.20600
F1380       F  0.24373771  0.95639643  0.50157872    -0.21700
F1381       F  0.21925008  0.93575314  0.52289625    -0.18900
F1382       F  0.27290134  0.02109984  0.59912538    -0.19000
F1383       F  0.25482129  0.99470274  0.62053259    -0.22800
F1384       F  0.23477318  0.02323925  0.60399646    -0.24400
C1385       C  0.20753775  0.99586280  0.74475744    -0.11300
C1386       C  0.20272595  0.97906380  0.76126303     0.11300
C1387       C  0.18245865  0.96573583  0.75905652    -0.03100
C1388       C  0.16952313  0.96742215  0.73836460    -0.05800
C1389       C  0.17547008  0.98309485  0.72088912    -0.16600
C1390       C  0.19362441  0.99891993  0.72517983     0.02300
C1391       C  0.22039394  0.97536098  0.77953550     0.12300
C1392       C  0.17393199  0.95087621  0.77882891     0.62900
H1393       H  0.15499108  0.95620302  0.73554609     0.12300
C1394       C  0.19914291  0.01933299  0.70992811     0.55000
H1395       H  0.22253897  0.00670352  0.74716651     0.08100
C1396       C  0.23833748  0.95936768  0.77640480    -0.05700
C1397       C  0.25691031  0.95942908  0.79202824    -0.06400
C1398       C  0.25949520  0.97637791  0.80906958    -0.16000
C1399       C  0.24130730  0.99226307  0.81240616    -0.01600
C1400       C  0.22177437  0.99103763  0.79779307    -0.09100
C1401       C  0.23917663  0.94391209  0.75527762     0.65100
H1402       H  0.27074489  0.94728450  0.78976821     0.10600
C1403       C  0.24282475  0.01134351  0.83006849     0.63500
H1404       H  0.20798204  0.00332405  0.79949291     0.07900
F1405       F  0.21928138  0.01524554  0.69793632    -0.19500
F1406       F  0.20227711  0.03847212  0.72358676    -0.15700
F1407       F  0.18172740  0.02429923  0.69443835    -0.19200
F1408       F  0.16700038  0.96479581  0.79675667    -0.22600
F1409       F  0.19104692  0.93656291  0.78688607    -0.24100
F1410       F  0.15538111  0.93748140  0.77218529    -0.18100
F1411       F  0.22476364  0.02659357  0.82786406    -0.20600
F1412       F  0.26303713  0.02344483  0.82715807    -0.21700
F1413       F  0.24201687  0.00241714  0.85214606    -0.18900
F1414       F  0.25803794  0.92950578  0.75582540    -0.19000
F1415       F  0.24067629  0.95711027  0.73548966    -0.22800
F1416       F  0.21964712  0.93048991  0.75392522    -0.24400
C1417       C  0.62910101  0.96228716  0.42044545    -0.11300
C1418       C  0.60963877  0.97611759  0.42322279     0.11300
C1419       C  0.60741270  0.98954449  0.44339815    -0.03100
C1420       C  0.62537125  0.98934906  0.45981055    -0.05800
C1421       C  0.64497178  0.97560012  0.45709261    -0.16600
C1422       C  0.64691236  0.96169936  0.43707431     0.02300
C1423       C  0.59185265  0.97622520  0.40462371     0.12300
C1424       C  0.58592798  0.00362258  0.44777723     0.62900
H1425       H  0.62397899  0.99960431  0.47529525     0.12300
C1426       C  0.66790714  0.94687816  0.43277979     0.55000
H1427       H  0.63020541  0.95196852  0.40497913     0.08100
C1428       C  0.59379691  0.99050715  0.38495124    -0.05700
C1429       C  0.57596678  0.99028778  0.36839133    -0.06400
C1430       C  0.55672132  0.97583608  0.37054533    -0.16000
C1431       C  0.55500313  0.96122918  0.39009229    -0.01600
C1432       C  0.57273838  0.96168596  0.40681665    -0.09100
C1433       C  0.61480269  0.00562521  0.38131197     0.65100
H1434       H  0.57709254  0.00122550  0.35331298     0.10600
C1435       C  0.53428816  0.94576588  0.39371669     0.63500
H1436       H  0.57182338  0.95072354  0.42189055     0.07900
F1437       F  0.66720366  0.93675042  0.41117966    -0.19500
F1438       F  0.66897996  0.92963083  0.44909269    -0.15700
F1439       F  0.68769683  0.96004647  0.43400599    -0.19200
F1440       F  0.56706161  0.98930066  0.44967821    -0.22600
F1441       F  0.58226135  0.01872067  0.42975743    -0.24100
F1442       F  0.58766966  0.01613632  0.46798575    -0.18100
F1443       F  0.53403872  0.92884961  0.37709580    -0.20600
F1444       F  0.51420393  0.95835127  0.39219022    -0.21700
F1445       F  0.53474892  0.93531639  0.41521072    -0.18900
F1446       F  0.61267427  0.01905092  0.36169750    -0.19000
F1447       F  0.63416456  0.99217765  0.37884951    -0.22800
F1448       F  0.61790052  0.01996256  0.40001130    -0.24400
C1449       C  0.76183813  0.00260518  0.42723118    -0.11300
C1450       C  0.77740459  0.98448070  0.42563607     0.11300
C1451       C  0.77710512  0.96700331  0.44254003    -0.03100
C1452       C  0.75976402  0.96731196  0.45948700    -0.05800
C1453       C  0.74326162  0.98485193  0.46052632    -0.16600
C1454       C  0.74474305  0.00327729  0.44445940     0.02300
C1455       C  0.79261553  0.98341115  0.40503158     0.12300
C1456       C  0.79506799  0.94817916  0.44268572     0.62900
H1457       H  0.75902051  0.95373321  0.47219208     0.12300
C1458       C  0.72814933  0.02328782  0.44480965     0.55000
H1459       H  0.76287844  0.01599229  0.41433010     0.08100
C1460       C  0.78447197  0.97484164  0.38371319    -0.05700
C1461       C  0.79966661  0.97397319  0.36490848    -0.06400
C1462       C  0.82254448  0.98217670  0.36620256    -0.16000
C1463       C  0.83132911  0.98791877  0.38863863    -0.01600
C1464       C  0.81572518  0.98995086  0.40715035    -0.09100
C1465       C  0.75964135  0.96700572  0.38068001     0.65100
H1466       H  0.79352310  0.96663348  0.34893827     0.10600
C1467       C  0.85670559  0.99058962  0.39484425     0.63500
H1468       H  0.82186782  0.99577818  0.42385243     0.07900
F1469       F  0.73204285  0.03833884  0.42673524    -0.19500
F1470       F  0.73082123  0.03531456  0.46519339    -0.15700
F1471       F  0.70571961  0.01545276  0.44290665    -0.19200
F1472       F  0.81659770  0.95754422  0.44668351    -0.22600
F1473       F  0.79519448  0.93698529  0.42167192    -0.24100
F1474       F  0.79088402  0.93216750  0.45981534    -0.18100
F1475       F  0.86211808  0.01351647  0.39669036    -0.20600
F1476       F  0.87119039  0.98034393  0.37912912    -0.21700
F1477       F  0.86104955  0.98028622  0.41598623    -0.18900
F1478       F  0.75578072  0.95751018  0.35910897    -0.19000
F1479       F  0.74504088  0.98544399  0.38303830    -0.22800
F1480       F  0.75418363  0.95072993  0.39713157    -0.24400
C1481       C  0.92362061  0.92668387  0.70530760    -0.11300
C1482       C  0.91471071  0.90577393  0.69785031     0.11300
C1483       C  0.89157590  0.90446784  0.69037945    -0.03100
C1484       C  0.87846488  0.92465391  0.68948924    -0.05800
C1485       C  0.88791652  0.94629404  0.69477393    -0.16600
C1486       C  0.91108762  0.94719105  0.70332265     0.02300
C1487       C  0.93088052  0.88618677  0.69582879     0.12300
C1488       C  0.88098889  0.88189774  0.68291234     0.62900
H1489       H  0.86064132  0.92365991  0.68404307     0.12300
C1490       C  0.92368014  0.96916816  0.70935182     0.55000
H1491       H  0.94119899  0.92689119  0.71165744     0.08100
C1492       C  0.94649021  0.88476015  0.67710245    -0.05700
C1493       C  0.96161986  0.86613715  0.67609840    -0.06400
C1494       C  0.96137832  0.84878660  0.69284082    -0.16000
C1495       C  0.94548596  0.84988607  0.71133251    -0.01600
C1496       C  0.93071743  0.86894980  0.71276247    -0.09100
C1497       C  0.94698965  0.90270682  0.65806372     0.65100
H1498       H  0.97387497  0.86489611  0.66207393     0.10600
C1499       C  0.94338542  0.83056905  0.72873681     0.63500
H1500       H  0.91869555  0.87043430  0.72694964     0.07900
F1501       F  0.94730305  0.96602957  0.71050484    -0.19500
F1502       F  0.91665831  0.97696032  0.73069400    -0.15700
F1503       F  0.91979182  0.98547486  0.69268515    -0.19200
F1504       F  0.88056946  0.86697110  0.70144407    -0.22600
F1505       F  0.89381499  0.87240257  0.66529016    -0.24100
F1506       F  0.85863189  0.88453335  0.67496450    -0.18100
F1507       F  0.96351935  0.82853221  0.74132374    -0.20600
F1508       F  0.93907076  0.81029903  0.71727014    -0.21700
F1509       F  0.92558408  0.83421363  0.74415128    -0.18900
F1510       F  0.96213069  0.89698573  0.64058160    -0.19000
F1511       F  0.95388669  0.92348185  0.66701991    -0.22800
F1512       F  0.92531364  0.90496791  0.64835738    -0.24400
C1513       C  0.75859052  0.96731710  0.59459969    -0.11300
C1514       C  0.77390100  0.98584394  0.59425396     0.11300
C1515       C  0.77266718  0.00203463  0.57610565    -0.03100
C1516       C  0.75542894  0.99946388  0.55914533    -0.05800
C1517       C  0.74000751  0.98090716  0.55935313    -0.16600
C1518       C  0.74159596  0.96444478  0.57739421     0.02300
C1519       C  0.79148524  0.98756275  0.61287370     0.12300
C1520       C  0.78976343  0.02169210  0.57446329     0.62900
H1521       H  0.75418960  0.01175604  0.54518941     0.12300
C1522       C  0.72528618  0.94416411  0.57887417     0.55000
H1523       H  0.76021581  0.95500231  0.60850077     0.08100
C1524       C  0.78684624  0.99825534  0.63415399    -0.05700
C1525       C  0.80473700  0.00014753  0.65047818    -0.06400
C1526       C  0.82667287  0.99008402  0.64723625    -0.16000
C1527       C  0.83168280  0.98164595  0.62459467    -0.01600
C1528       C  0.81360482  0.97932671  0.60849158    -0.09100
C1529       C  0.76288276  0.00696739  0.63990572     0.65100
H1530       H  0.80137985  0.00952103  0.66614626     0.10600
C1531       C  0.85546534  0.97661748  0.61516594     0.63500
H1532       H  0.81707141  0.97193737  0.59167775     0.07900
F1533       F  0.72802104  0.93215655  0.59933998    -0.19500
F1534       F  0.72952125  0.92931594  0.56084164    -0.15700
F1535       F  0.70269140  0.95156594  0.57777643    -0.19200
F1536       F  0.81176877  0.01323226  0.57159782    -0.22600
F1537       F  0.78917461  0.03466713  0.59437048    -0.24100
F1538       F  0.78497985  0.03592363  0.55593883    -0.18100
F1539       F  0.85764172  0.95345072  0.61126229    -0.20600
F1540       F  0.87288613  0.98374489  0.62947426    -0.21700
F1541       F  0.85834269  0.98806165  0.59438711    -0.18900
F1542       F  0.76214747  0.01717920  0.66145519    -0.19000
F1543       F  0.74747566  0.98893056  0.63995610    -0.22800
F1544       F  0.75584818  0.02286585  0.62370306    -0.24400
C1545       C  0.92143200  0.05314493  0.67612051    -0.11300
C1546       C  0.92555797  0.06225283  0.69804287     0.11300
C1547       C  0.91358734  0.05315434  0.71727384    -0.03100
C1548       C  0.89735529  0.03551735  0.71355957    -0.05800
C1549       C  0.89287227  0.02646995  0.69153060    -0.16600
C1550       C  0.90650842  0.03453935  0.67264514     0.02300
C1551       C  0.94238804  0.08148464  0.69975221     0.12300
C1552       C  0.91802139  0.06188422  0.74158393     0.62900
H1553       H  0.88799170  0.02876852  0.72794289     0.12300
C1554       C  0.90768876  0.02264235  0.64936722     0.55000
H1555       H  0.93062548  0.06040366  0.66155779     0.08100
C1556       C  0.96641813  0.07821954  0.69676539    -0.05700
C1557       C  0.98088524  0.09753716  0.69535532    -0.06400
C1558       C  0.97212258  0.11979691  0.69666694    -0.16000
C1559       C  0.94833576  0.12300271  0.70090282    -0.01600
C1560       C  0.93377943  0.10373500  0.70194513    -0.09100
C1561       C  0.97673363  0.05448955  0.69464575     0.65100
H1562       H  0.99914230  0.09540985  0.69232715     0.10600
C1563       C  0.93848352  0.14658989  0.70487060     0.63500
H1564       H  0.91536813  0.10592664  0.70388388     0.07900
F1565       F  0.92861772  0.02672902  0.63865346    -0.19500
F1566       F  0.89048934  0.03049417  0.63486718    -0.15700
F1567       F  0.90589270  0.99933009  0.65216980    -0.19200
F1568       F  0.91232555  0.08471361  0.74302544    -0.22600
F1569       F  0.94104009  0.05924956  0.74713414    -0.24100
F1570       F  0.90512607  0.05016076  0.75786518    -0.18100
F1571       F  0.93970614  0.15932380  0.68478211    -0.20600
F1572       F  0.95086407  0.15737761  0.72216053    -0.21700
F1573       F  0.91565035  0.14564796  0.71166698    -0.18900
F1574       F  0.00058327  0.05514701  0.69461321    -0.19000
F1575       F  0.96961665  0.04440124  0.67426521    -0.22800
F1576       F  0.96980908  0.04105949  0.71304797    -0.24400
C1577       C  0.81249311  0.99553240  0.76790427    -0.11300
C1578       C  0.79654548  0.97757528  0.76644991     0.11300
C1579       C  0.79931970  0.96068899  0.74922981    -0.03100
C1580       C  0.81790216  0.96269636  0.73374414    -0.05800
C1581       C  0.83239121  0.98204989  0.73349928    -0.16600
C1582       C  0.83025777  0.99822915  0.75153844     0.02300
C1583       C  0.77524850  0.97914046  0.78063556     0.12300
C1584       C  0.78151125  0.94192106  0.74573427     0.62900
H1585       H  0.81965923  0.95044285  0.71986409     0.12300
C1586       C  0.84631344  0.01844576  0.75331276     0.55000
H1587       H  0.81001587  0.00822367  0.78124665     0.08100
C1588       C  0.77343015  0.96999869  0.80319531    -0.05700
C1589       C  0.75217153  0.97175050  0.81483232    -0.06400
C1590       C  0.73346405  0.98406252  0.80554078    -0.16000
C1591       C  0.73656252  0.99555349  0.78400321    -0.01600
C1592       C  0.75692871  0.99181020  0.77151375    -0.09100
C1593       C  0.79396606  0.95901843  0.81509406     0.65100
H1594       H  0.74997668  0.96310005  0.83119473     0.10600
C1595       C  0.71982859  0.01266168  0.77359538     0.63500
H1596       H  0.75898747  0.99968405  0.75464592     0.07900
F1597       F  0.86827441  0.01047553  0.75765405    -0.19500
F1598       F  0.84033893  0.03295139  0.77116635    -0.15700
F1599       F  0.84582814  0.03088143  0.73296946    -0.19200
F1600       F  0.76063732  0.95149579  0.73954218    -0.22600
F1601       F  0.77864917  0.92952107  0.76584169    -0.24100
F1602       F  0.78789623  0.92689844  0.72846989    -0.18100
F1603       F  0.73182208  0.03180548  0.76626949    -0.20600
F1604       F  0.70348237  0.02008367  0.78906984    -0.21700
F1605       F  0.70894656  0.00297503  0.75469390    -0.18900
F1606       F  0.78866457  0.95184411  0.83727548    -0.19000
F1607       F  0.81177859  0.97466492  0.81660348    -0.22800
F1608       F  0.80140637  0.94031709  0.80274389    -0.24400
C1609       C  0.58982228  0.95475888  0.62571936    -0.11300
C1610       C  0.58828470  0.96984966  0.60693629     0.11300
C1611       C  0.56852550  0.98377730  0.60444069    -0.03100
C1612       C  0.55113628  0.98252356  0.62133107    -0.05800
C1613       C  0.55255145  0.96740178  0.64017390    -0.16600
C1614       C  0.57229803  0.95325529  0.64250680     0.02300
C1615       C  0.60748494  0.97041324  0.58988627     0.12300
C1616       C  0.56568964  0.99965216  0.58383042     0.62900
H1617       H  0.53594479  0.99309976  0.61968125     0.12300
C1618       C  0.57528684  0.93707568  0.66284668     0.55000
H1619       H  0.60496380  0.94407078  0.62704844     0.08100
C1620       C  0.62756479  0.98375868  0.59343150    -0.05700
C1621       C  0.64434447  0.98453861  0.57589866    -0.06400
C1622       C  0.64221511  0.97153175  0.55563245    -0.16000
C1623       C  0.62260623  0.95731128  0.55259701    -0.01600
C1624       C  0.60544603  0.95716912  0.56980383    -0.09100
C1625       C  0.63150442  0.99659943  0.61588437     0.65100
H1626       H  0.65962928  0.99496793  0.57811112     0.10600
C1627       C  0.61947753  0.94281529  0.53108150     0.63500
H1628       H  0.59016433  0.94671263  0.56773706     0.07900
F1629       F  0.59694992  0.92723395  0.66317185    -0.19500
F1630       F  0.55920223  0.91967949  0.66150446    -0.15700
F1631       F  0.57249916  0.94881379  0.68337278    -0.19200
F1632       F  0.56488514  0.98702009  0.56369041    -0.22600
F1633       F  0.58400572  0.01473578  0.58272507    -0.24100
F1634       F  0.54560386  0.01226899  0.58515994    -0.18100
F1635       F  0.63627955  0.92615411  0.53040664    -0.20600
F1636       F  0.62108968  0.95638247  0.51154489    -0.21700
F1637       F  0.59823055  0.93202070  0.53067114    -0.18900
F1638       F  0.65158939  0.00939399  0.61533633    -0.19000
F1639       F  0.63323495  0.98119218  0.63394119    -0.22800
F1640       F  0.61338136  0.01124769  0.62008385    -0.24400
C1641       C  0.43542346  0.95102969  0.59839766    -0.11300
C1642       C  0.41764137  0.96711247  0.60008537     0.11300
C1643       C  0.41686707  0.98194604  0.61932012    -0.03100
C1644       C  0.43463632  0.98084913  0.63584532    -0.05800
C1645       C  0.45263998  0.96495005  0.63418593    -0.16600
C1646       C  0.45300924  0.94956622  0.61524666     0.02300
C1647       C  0.39986494  0.96812988  0.58154713     0.12300
C1648       C  0.39706306  0.99854081  0.62258150     0.62900
H1649       H  0.43435345  0.99221570  0.65058151     0.12300
C1650       C  0.47203586  0.93206346  0.61249245     0.55000
H1651       H  0.43536741  0.93961527  0.58369641     0.08100
C1652       C  0.40278226  0.98181438  0.56157178    -0.05700
C1653       C  0.38422711  0.98401329  0.54600393    -0.06400
C1654       C  0.36371102  0.97158252  0.54888385    -0.16000
C1655       C  0.36129221  0.95690059  0.56829332    -0.01600
C1656       C  0.37939167  0.95573930  0.58453752    -0.09100
C1657       C  0.42564877  0.99339710  0.55642645     0.65100
H1658       H  0.38590752  0.99489727  0.53094436     0.10600
C1659       C  0.33959573  0.94285320  0.57212789     0.63500
H1660       H  0.37777343  0.94508278  0.59977463     0.07900
F1661       F  0.47060390  0.92087515  0.59147615    -0.19500
F1662       F  0.47041190  0.91585950  0.62983306    -0.15700
F1663       F  0.49332486  0.94269125  0.61367567    -0.19200
F1664       F  0.37673556  0.98649418  0.62530903    -0.22600
F1665       F  0.39508036  0.01272281  0.60355663    -0.24100
F1666       F  0.40017365  0.01212500  0.64189784    -0.18100
F1667       F  0.33800132  0.92601374  0.55548661    -0.20600
F1668       F  0.32039573  0.95674899  0.57085285    -0.21700
F1669       F  0.33960087  0.93230739  0.59356949    -0.18900
F1670       F  0.42480891  0.00596936  0.53614669    -0.19000
F1671       F  0.44257745  0.97701436  0.55406123    -0.22800
F1672       F  0.43167890  0.00796750  0.57421078    -0.24400
C1673       C  0.56662042  0.95735000  0.77150882    -0.11300
C1674       C  0.58417914  0.97355863  0.76846562     0.11300
C1675       C  0.58234686  0.98985577  0.75045527    -0.03100
C1676       C  0.56359174  0.98836918  0.73504422    -0.05800
C1677       C  0.54653197  0.97143671  0.73733766    -0.16600
C1678       C  0.54737160  0.95641768  0.75662023     0.02300
C1679       C  0.60472671  0.97259560  0.78387180     0.12300
C1680       C  0.60033405  0.00849726  0.74731966     0.62900
H1681       H  0.56250939  0.00008301  0.72057382     0.12300
C1682       C  0.52767567  0.94021570  0.76214508     0.55000
H1683       H  0.56821649  0.94527207  0.78562388     0.08100
C1684       C  0.60512729  0.98275298  0.80595183    -0.05700
C1685       C  0.62593284  0.98270092  0.81856841    -0.06400
C1686       C  0.64628151  0.97240494  0.81012280    -0.16000
C1687       C  0.64408544  0.95849922  0.78987670    -0.01600
C1688       C  0.62388199  0.96021337  0.77644523    -0.09100
C1689       C  0.58351175  0.99306178  0.81634931     0.65100
H1690       H  0.62597251  0.99019966  0.83556192     0.10600
C1691       C  0.66145116  0.94086644  0.78165821     0.63500
H1692       H  0.62271004  0.95107754  0.76018710     0.07900
F1693       F  0.52996500  0.93080658  0.78401455    -0.19500
F1694       F  0.52708292  0.92257877  0.74633684    -0.15700
F1695       F  0.50699858  0.95191695  0.76144952    -0.19200
F1696       F  0.62128753  0.99886239  0.74174453    -0.22600
F1697       F  0.60277135  0.02085301  0.76751037    -0.24100
F1698       F  0.59430245  0.02360961  0.72989569    -0.18100
F1699       F  0.65006214  0.92056640  0.77707197    -0.20600
F1700       F  0.67838414  0.93590348  0.79762655    -0.21700
F1701       F  0.67166189  0.94842899  0.76146688    -0.18900
F1702       F  0.58793727  0.00350694  0.83734596    -0.19000
F1703       F  0.56738663  0.97602714  0.81996601    -0.22800
F1704       F  0.57424316  0.00924574  0.80163037    -0.24400
C1705       C  0.38855636  0.96815551  0.79785602    -0.11300
C1706       C  0.38671226  0.97463625  0.77466566     0.11300
C1707       C  0.36543759  0.98267639  0.76613680    -0.03100
C1708       C  0.34662564  0.98404388  0.78135900    -0.05800
C1709       C  0.34778698  0.97662233  0.80466805    -0.16600
C1710       C  0.37002096  0.97008124  0.81341710     0.02300
C1711       C  0.40749439  0.97296558  0.75974734     0.12300
C1712       C  0.36250501  0.98941848  0.74087366     0.62900
H1713       H  0.33103544  0.99158885  0.77483760     0.12300
C1714       C  0.37588377  0.96473808  0.83857965     0.55000
H1715       H  0.40508888  0.96202058  0.80402504     0.08100
C1716       C  0.42487298  0.98997000  0.75963865    -0.05700
C1717       C  0.44379540  0.98736144  0.74471366    -0.06400
C1718       C  0.44590187  0.96843303  0.72995269    -0.16000
C1719       C  0.42838063  0.95136695  0.73016308    -0.01600
C1720       C  0.40967934  0.95384939  0.74542784    -0.09100
C1721       C  0.42337172  0.01085961  0.77509741     0.65100
H1722       H  0.45721237  0.00023508  0.74446746     0.10600
C1723       C  0.42869224  0.93107185  0.71384551     0.63500
H1724       H  0.39627035  0.94097364  0.74611278     0.07900
F1725       F  0.39721237  0.97391465  0.84410271    -0.19500
F1726       F  0.37698320  0.94133515  0.84153643    -0.15700
F1727       F  0.36053932  0.97368164  0.85420554    -0.19200
F1728       F  0.36605365  0.97061128  0.72696320    -0.22600
F1729       F  0.37819442  0.00623193  0.73502757    -0.24100
F1730       F  0.34063851  0.99765935  0.73623920    -0.18100
F1731       F  0.44683022  0.91681922  0.71942026    -0.20600
F1732       F  0.43095461  0.93859848  0.69127191    -0.21700
F1733       F  0.40858254  0.91835879  0.71515005    -0.18900
F1734       F  0.44179618  0.02556267  0.77180373    -0.19000
F1735       F  0.42335306  0.00424163  0.79803848    -0.22800
F1736       F  0.40337191  0.02276606  0.77040672    -0.24400
C1737       C  0.30405377  0.86854761  0.91853797    -0.11300
C1738       C  0.29789533  0.89092738  0.92407427     0.11300
C1739       C  0.29117464  0.89610035  0.94689891    -0.03100
C1740       C  0.29452320  0.87951695  0.96434521    -0.05800
C1741       C  0.30288774  0.85756382  0.95923408    -0.16600
C1742       C  0.30552659  0.85143594  0.93556999     0.02300
C1743       C  0.29892130  0.90850390  0.90553478     0.12300
C1744       C  0.27994578  0.91877730  0.95258985     0.62900
H1745       H  0.29097077  0.88375626  0.98175752     0.12300
C1746       C  0.30787574  0.82690264  0.92765869     0.55000
H1747       H  0.30774610  0.86451046  0.90066893     0.08100
C1748       C  0.31901802  0.92175793  0.90197654    -0.05700
C1749       C  0.31909230  0.93797602  0.88405788    -0.06400
C1750       C  0.30052051  0.94019223  0.86859467    -0.16000
C1751       C  0.28097048  0.92582712  0.87121525    -0.01600
C1752       C  0.28029991  0.91056222  0.89013625    -0.09100
C1753       C  0.34073779  0.91790602  0.91622425     0.65100
H1754       H  0.33408839  0.94869727  0.88151374     0.10600
C1755       C  0.26172584  0.92535518  0.85338394     0.63500
H1756       H  0.26549093  0.89957553  0.89272717     0.07900
F1757       F  0.33070294  0.82033882  0.92801227    -0.19500
F1758       F  0.29968526  0.82425228  0.90530498    -0.15700
F1759       F  0.29496984  0.81269507  0.94164744    -0.19200
F1760       F  0.26028282  0.92135391  0.93928370    -0.22600
F1761       F  0.29479433  0.93666400  0.94795265    -0.24100
F1762       F  0.27364257  0.91999812  0.97559767    -0.18100
F1763       F  0.24586814  0.90824129  0.85795110    -0.20600
F1764       F  0.27087399  0.92141529  0.83171443    -0.21700
F1765       F  0.25006311  0.94583603  0.85323502    -0.18900
F1766       F  0.35847472  0.93229114  0.90950632    -0.19000
F1767       F  0.34812284  0.89566842  0.91341548    -0.22800
F1768       F  0.33648659  0.92169878  0.93936939    -0.24400
C1769       C  0.31047947  0.87073678  0.08201961    -0.11300
C1770       C  0.30364313  0.89298239  0.07660501     0.11300
C1771       C  0.29679991  0.89828624  0.05372969    -0.03100
C1772       C  0.29794257  0.88109922  0.03672424    -0.05800
C1773       C  0.30613970  0.85908040  0.04179063    -0.16600
C1774       C  0.31126913  0.85342299  0.06527753     0.02300
C1775       C  0.30740516  0.91084231  0.09442748     0.12300
C1776       C  0.28917549  0.92221860  0.04702168     0.62900
H1777       H  0.29382520  0.88519312  0.01935426     0.12300
C1778       C  0.31773871  0.82982777  0.07423397     0.55000
H1779       H  0.31580312  0.86695187  0.09959121     0.08100
C1780       C  0.29218959  0.91455859  0.11310272    -0.05700
C1781       C  0.29806719  0.93118986  0.12972847    -0.06400
C1782       C  0.31864294  0.94388524  0.12833723    -0.16000
C1783       C  0.33377159  0.94001571  0.10949695    -0.01600
C1784       C  0.32798006  0.92325036  0.09314896    -0.09100
C1785       C  0.26998501  0.90100012  0.11548397     0.65100
H1786       H  0.28658187  0.93443283  0.14406734     0.10600
C1787       C  0.35558705  0.95379064  0.10596001     0.63500
H1788       H  0.33956296  0.91960921  0.07898510     0.07900
F1789       F  0.30409797  0.82450551  0.09308734    -0.19500
F1790       F  0.34053087  0.83005395  0.08128936    -0.15700
F1791       F  0.31473084  0.81258202  0.05831648    -0.19200
F1792       F  0.30708445  0.93750084  0.05014946    -0.22600
F1793       F  0.27078702  0.92880470  0.06052796    -0.24100
F1794       F  0.28232186  0.92342530  0.02412023    -0.18100
F1795       F  0.37141444  0.94828491  0.12287124    -0.20600
F1796       F  0.35058849  0.97676755  0.10678384    -0.21700
F1797       F  0.36565102  0.94947776  0.08474514    -0.18900
F1798       F  0.25718618  0.90806053  0.13430668    -0.19000
F1799       F  0.27494924  0.87811432  0.11836974    -0.22800
F1800       F  0.25657055  0.90366072  0.09589852    -0.24400
C1801       C  0.09063179  0.65614788  0.04956903    -0.11300
C1802       C  0.09112835  0.67531250  0.06398846     0.11300
C1803       C  0.10831042  0.69224704  0.06070392    -0.03100
C1804       C  0.12505328  0.68890738  0.04343715    -0.05800
C1805       C  0.12506519  0.66927198  0.02960060    -0.16600
C1806       C  0.10701945  0.65298649  0.03201483     0.02300
C1807       C  0.07427188  0.67635281  0.08328734     0.12300
C1808       C  0.10896950  0.71366700  0.07544141     0.62900
H1809       H  0.13870272  0.70132726  0.04102122     0.12300
C1810       C  0.10464382  0.63244865  0.01612385     0.55000
H1811       H  0.07749336  0.64331921  0.05255082     0.08100
C1812       C  0.05072670  0.68168618  0.07981788    -0.05700
C1813       C  0.03578866  0.68117249  0.09895289    -0.06400
C1814       C  0.04366263  0.67566651  0.12128258    -0.16000
C1815       C  0.06757662  0.67171842  0.12486523    -0.01600
C1816       C  0.08218160  0.67113536  0.10557758    -0.09100
C1817       C  0.04120174  0.68701559  0.05593495     0.65100
H1818       H  0.01752371  0.68386678  0.09630648     0.10600
C1819       C  0.07881208  0.66837447  0.14840927     0.63500
H1820       H  0.10021086  0.66690700  0.10799070     0.07900
F1821       F  0.08323478  0.62218051  0.01824651    -0.19500
F1822       F  0.12115706  0.61634724  0.02144731    -0.15700
F1823       F  0.10709129  0.63903955  0.99333877    -0.19200
F1824       F  0.11385422  0.70807434  0.09814839    -0.22600
F1825       F  0.08787672  0.72454228  0.07445733    -0.24100
F1826       F  0.12563168  0.72889460  0.06793203    -0.18100
F1827       F  0.08483294  0.64570112  0.15109159    -0.20600
F1828       F  0.06481878  0.67473104  0.16654462    -0.21700
F1829       F  0.09858300  0.68157953  0.14978670    -0.18900
F1830       F  0.01868716  0.69470560  0.05692335    -0.19000
F1831       F  0.04156090  0.66756104  0.04247766    -0.22800
F1832       F  0.05433289  0.70378994  0.04544121    -0.24400
C1833       C  0.06065599  0.64635811  0.90430535    -0.11300
C1834       C  0.07326937  0.66672953  0.90318940     0.11300
C1835       C  0.06738250  0.68343652  0.88647409    -0.03100
C1836       C  0.04832579  0.67941532  0.87183235    -0.05800
C1837       C  0.03548668  0.65910350  0.87310391    -0.16600
C1838       C  0.04160505  0.64222725  0.88980694     0.02300
C1839       C  0.09240854  0.66991642  0.92009200     0.12300
C1840       C  0.08133127  0.70525462  0.88401815     0.62900
H1841       H  0.04342269  0.69203423  0.85902744     0.12300
C1842       C  0.02791877  0.62022236  0.89324717     0.55000
H1843       H  0.06583669  0.63367381  0.91693678     0.08100
C1844       C  0.08827291  0.67608923  0.94335281    -0.05700
C1845       C  0.10697012  0.67682046  0.95890783    -0.06400
C1846       C  0.12949043  0.67115694  0.95210778    -0.16000
C1847       C  0.13379738  0.66679359  0.92827748    -0.01600
C1848       C  0.11498242  0.66553149  0.91292446    -0.09100
C1849       C  0.06406251  0.68099957  0.95191649     0.65100
H1850       H  0.10375815  0.68043933  0.97694295     0.10600
C1851       C  0.15753211  0.66396728  0.91760819     0.63500
H1852       H  0.11796346  0.66106560  0.89499868     0.07900
F1853       F  0.03299370  0.61006247  0.91428458    -0.19500
F1854       F  0.03325855  0.60478893  0.87608929    -0.15700
F1855       F  0.00449413  0.62441532  0.89290386    -0.19200
F1856       F  0.10343128  0.70005650  0.87697257    -0.22600
F1857       F  0.08239670  0.71655297  0.90494930    -0.24100
F1858       F  0.07176925  0.71992745  0.86785945    -0.18100
F1859       F  0.15979680  0.64192236  0.90945401    -0.20600
F1860       F  0.17546536  0.66843867  0.93264448    -0.21700
F1861       F  0.15971580  0.67896232  0.89921499    -0.18900
F1862       F  0.06409666  0.68869413  0.97452999    -0.19000
F1863       F  0.05088464  0.66133541  0.95097723    -0.22800
F1864       F  0.05388679  0.69758165  0.93828596    -0.24400
C1865       C  0.22629480  0.60531158  0.00876614    -0.11300
C1866       C  0.22091346  0.58652541  0.99487402     0.11300
C1867       C  0.19963617  0.58603433  0.98303672    -0.03100
C1868       C  0.18557752  0.60560308  0.98349222    -0.05800
C1869       C  0.19164932  0.62554321  0.99592387    -0.16600
C1870       C  0.21138987  0.62414010  0.01087773     0.02300
C1871       C  0.23738446  0.56706988  0.99434962     0.12300
C1872       C  0.19141791  0.56458873  0.97074528     0.62900
H1873       H  0.16912300  0.60476183  0.97486768     0.12300
C1874       C  0.21767691  0.64108096  0.02987122     0.55000
H1875       H  0.24209202  0.60481389  0.01882481     0.08100
C1876       C  0.25642532  0.56673432  0.97911674    -0.05700
C1877       C  0.27197224  0.54833927  0.98036526    -0.06400
C1878       C  0.26929087  0.53059870  0.99654877    -0.16000
C1879       C  0.24991859  0.53074954  0.01149435    -0.01600
C1880       C  0.23436485  0.54915912  0.01019202    -0.09100
C1881       C  0.26037930  0.58586464  0.96178386     0.65100
H1882       H  0.28676299  0.54795768  0.96900904     0.10600
C1883       C  0.24534107  0.51144048  0.02844882     0.63500
H1884       H  0.21978619  0.54991163  0.02180266     0.07900
F1885       F  0.23554427  0.65489557  0.02244666    -0.19500
F1886       F  0.22498323  0.62935306  0.04937109    -0.15700
F1887       F  0.19950662  0.65450725  0.03675777    -0.19200
F1888       F  0.18765117  0.54752428  0.98685389    -0.22600
F1889       F  0.20775191  0.55727384  0.95511887    -0.24100
F1890       F  0.17105548  0.56817024  0.95876820    -0.18100
F1891       F  0.26143887  0.51204975  0.04610092    -0.20600
F1892       F  0.24658012  0.49065445  0.01720548    -0.21700
F1893       F  0.22367692  0.51308128  0.03824522    -0.18900
F1894       F  0.27994851  0.58227903  0.94867636    -0.19000
F1895       F  0.26299707  0.60638789  0.97324747    -0.22800
F1896       F  0.24178902  0.58741042  0.94688516    -0.24400
C1897       C  0.19522594  0.75048394  0.98333122    -0.11300
C1898       C  0.21258196  0.75217904  0.00014257     0.11300
C1899       C  0.21484711  0.73464381  0.01688924    -0.03100
C1900       C  0.20077389  0.71513675  0.01501573    -0.05800
C1901       C  0.18495620  0.71224372  0.99676061    -0.16600
C1902       C  0.18169724  0.73054616  0.98083194     0.02300
C1903       C  0.23020018  0.77069000  0.99804128     0.12300
C1904       C  0.23253653  0.73618473  0.03629033     0.62900
H1905       H  0.20271249  0.70137162  0.02738833     0.12300
C1906       C  0.16558491  0.72873589  0.96020468     0.55000
H1907       H  0.19336927  0.76449773  0.97124509     0.08100
C1908       C  0.24787615  0.76950429  0.98124538    -0.05700
C1909       C  0.26661380  0.78460413  0.98296835    -0.06400
C1910       C  0.26856124  0.80062683  0.00089117    -0.16000
C1911       C  0.25019069  0.80274081  0.01693744    -0.01600
C1912       C  0.23100692  0.78797328  0.01479409    -0.09100
C1913       C  0.24747740  0.75185541  0.96199404     0.65100
H1914       H  0.28056869  0.78334082  0.97072326     0.10600
C1915       C  0.25131815  0.81909116  0.03721624     0.63500
H1916       H  0.21694951  0.78894790  0.02699775     0.07900
F1917       F  0.17096392  0.70962119  0.94752103    -0.19500
F1918       F  0.16741529  0.74743562  0.94563394    -0.15700
F1919       F  0.14300745  0.72747598  0.96744312    -0.19200
F1920       F  0.22693610  0.75394724  0.05090148    -0.22600
F1921       F  0.25428660  0.73990433  0.02730403    -0.24100
F1922       F  0.23331354  0.71637748  0.04935584    -0.18100
F1923       F  0.23285337  0.81625704  0.05204955    -0.20600
F1924       F  0.25106382  0.84138344  0.02949231    -0.21700
F1925       F  0.27114938  0.81523223  0.04975289    -0.18900
F1926       F  0.26722475  0.75272157  0.94864513    -0.19000
F1927       F  0.22890644  0.75580318  0.94753940    -0.22800
F1928       F  0.24576929  0.73013338  0.97124468    -0.24400
C1929       C  0.31944605  0.09028677  0.07549429    -0.11300
C1930       C  0.31558065  0.06751673  0.06923014     0.11300
C1931       C  0.30969561  0.06221040  0.04608510    -0.03100
C1932       C  0.30943135  0.07994830  0.02958580    -0.05800
C1933       C  0.31407871  0.10271010  0.03570300    -0.16600
C1934       C  0.31819293  0.10816203  0.05932679     0.02300
C1935       C  0.31614488  0.05004982  0.08790720     0.12300
C1936       C  0.30372778  0.03798124  0.03888566     0.62900
H1937       H  0.30611437  0.07605619  0.01158331     0.12300
C1938       C  0.32079859  0.13224094  0.06883641     0.55000
H1939       H  0.32302477  0.09418627  0.09347878     0.08100
C1940       C  0.33690748  0.04037225  0.09601703    -0.05700
C1941       C  0.33606078  0.02516381  0.11487864    -0.06400
C1942       C  0.31533941  0.01959490  0.12636463    -0.16000
C1943       C  0.29466196  0.03010870  0.11841042    -0.01600
C1944       C  0.29550918  0.04492338  0.09919406    -0.09100
C1945       C  0.35992813  0.04647048  0.08512107     0.65100
H1946       H  0.35192344  0.01771517  0.12100553     0.10600
C1947       C  0.27182216  0.02687204  0.13034801     0.63500
H1948       H  0.27994510  0.05303578  0.09290768     0.07900
F1949       F  0.34335315  0.13559886  0.07582439    -0.19500
F1950       F  0.30655745  0.13479089  0.08779960    -0.15700
F1951       F  0.31494432  0.14912745  0.05322662    -0.19200
F1952       F  0.28476383  0.03039394  0.05110848    -0.22600
F1953       F  0.32206109  0.02363046  0.04332608    -0.24100
F1954       F  0.29853749  0.03660128  0.01554783    -0.18100
F1955       F  0.27481243  0.02885590  0.15397030    -0.20600
F1956       F  0.26288493  0.00579537  0.12451696    -0.21700
F1957       F  0.25587811  0.04316552  0.12366084    -0.18900
F1958       F  0.37801975  0.03490086  0.09544723    -0.19000
F1959       F  0.36406860  0.06959846  0.08742680    -0.22800
F1960       F  0.35972921  0.04098495  0.06191281    -0.24400
C1961       C  0.28613642  0.07817748  0.92896900    -0.11300
C1962       C  0.30520495  0.06445787  0.92391306     0.11300
C1963       C  0.32633297  0.06835701  0.93551529    -0.03100
C1964       C  0.32734190  0.08539226  0.95259708    -0.05800
C1965       C  0.30836051  0.09940524  0.95765064    -0.16600
C1966       C  0.28732995  0.09587555  0.94545106     0.02300
C1967       C  0.30318170  0.04764745  0.90475847     0.12300
C1968       C  0.34791930  0.05509045  0.92932295     0.62900
H1969       H  0.34332618  0.08834091  0.96182736     0.12300
C1970       C  0.26655528  0.11123775  0.94860082     0.55000
H1971       H  0.27034857  0.07516801  0.91940748     0.08100
C1972       C  0.29477686  0.02519258  0.90808060    -0.05700
C1973       C  0.29516320  0.00990172  0.88929213    -0.06400
C1974       C  0.30263719  0.01669860  0.86718528    -0.16000
C1975       C  0.30867027  0.04003134  0.86348244    -0.01600
C1976       C  0.30954189  0.05479421  0.88257539    -0.09100
C1977       C  0.28555893  0.01746130  0.93136042     0.65100
H1978       H  0.29033848  0.99224714  0.89202965     0.10600
C1979       C  0.31419694  0.05051635  0.84005568     0.63500
H1980       H  0.31512317  0.07232223  0.88015051     0.07900
F1981       F  0.25626707  0.10689715  0.96962585    -0.19500
F1982       F  0.25011814  0.10766817  0.93157799    -0.15700
F1983       F  0.27321431  0.13386532  0.94743377    -0.19200
F1984       F  0.35358522  0.05905338  0.90646572    -0.22600
F1985       F  0.34423668  0.03198915  0.93248891    -0.24100
F1986       F  0.36659684  0.06146984  0.94280381    -0.18100
F1987       F  0.30355464  0.07155070  0.83804348    -0.20600
F1988       F  0.30660859  0.03741549  0.82172488    -0.21700
F1989       F  0.33774436  0.05369048  0.83828986    -0.18900
F1990       F  0.27783393  0.99508374  0.93076669    -0.19000
F1991       F  0.26726671  0.03113054  0.93768675    -0.22800
F1992       F  0.30260812  0.01905194  0.94800170    -0.24400
C1993       C  0.11769268  0.29387248  0.08041155    -0.11300
C1994       C  0.09519448  0.29017298  0.07234167     0.11300
C1995       C  0.09139772  0.28619678  0.04846037    -0.03100
C1996       C  0.11021912  0.28771603  0.03329225    -0.05800
C1997       C  0.13269891  0.29185731  0.04128290    -0.16600
C1998       C  0.13675355  0.29331872  0.06544924     0.02300
C1999       C  0.07583715  0.29193643  0.08902959     0.12300
C2000       C  0.06773715  0.27986832  0.03903296     0.62900
H2001       H  0.10743329  0.28580860  0.01490644     0.12300
C2002       C  0.16081324  0.29179288  0.07567397     0.55000
H2003       H  0.12025947  0.29698294  0.09867843     0.08100
C2004       C  0.07153506  0.27542377  0.10647486    -0.05700
C2005       C  0.05288503  0.27887759  0.12160691    -0.06400
C2006       C  0.03840421  0.29793925  0.11953067    -0.16000
C2007       C  0.04205653  0.31367544  0.10126673    -0.01600
C2008       C  0.06142801  0.31097117  0.08711793    -0.09100
C2009       C  0.08634918  0.25422603  0.10903993     0.65100
H2010       H  0.04957742  0.26677380  0.13538580     0.10600
C2011       C  0.02543059  0.33288652  0.09596066     0.63500
H2012       H  0.06529038  0.32367644  0.07403554     0.07900
F2013       F  0.16034559  0.29022620  0.09955964    -0.19500
F2014       F  0.17382807  0.31069748  0.06994720    -0.15700
F2015       F  0.17132177  0.27232787  0.06742195    -0.19200
F2016       F  0.05253438  0.29774879  0.04167736    -0.22600
F2017       F  0.05940411  0.26097664  0.05072543    -0.24100
F2018       F  0.06851167  0.27458218  0.01572888    -0.18100
F2019       F  0.02957439  0.35079628  0.11079412    -0.20600
F2020       F  0.00290014  0.32549742  0.09824646    -0.21700
F2021       F  0.02806177  0.34080183  0.07354291    -0.18900
F2022       F  0.07757044  0.23933900  0.12544463    -0.19000
F2023       F  0.10837300  0.26021738  0.11585301    -0.22800
F2024       F  0.08738172  0.24277607  0.08819968    -0.24400
C2025       C  0.10663239  0.27337782  0.93423119    -0.11300
C2026       C  0.08961619  0.29019751  0.93646353     0.11300
C2027       C  0.09152825  0.30651560  0.95444268    -0.03100
C2028       C  0.11063548  0.30544141  0.96940292    -0.05800
C2029       C  0.12832586  0.28943151  0.96637102    -0.16600
C2030       C  0.12662400  0.27342005  0.94809028     0.02300
C2031       C  0.07060752  0.29112650  0.91907399     0.12300
C2032       C  0.07399840  0.32553807  0.95733597     0.62900
H2033       H  0.11237754  0.31772279  0.98327631     0.12300
C2034       C  0.14564138  0.25707786  0.94130890     0.55000
H2035       H  0.10492215  0.26084552  0.92056383     0.08100
C2036       C  0.07407435  0.29935626  0.89633175    -0.05700
C2037       C  0.05497067  0.30112443  0.88139356    -0.06400
C2038       C  0.03227436  0.29663888  0.88877593    -0.16000
C2039       C  0.02893230  0.28853266  0.91187884    -0.01600
C2040       C  0.04840968  0.28493064  0.92605867    -0.09100
C2041       C  0.09769616  0.30707051  0.88808815     0.65100
H2042       H  0.05764913  0.30669719  0.86375275     0.10600
C2043       C  0.00536436  0.28534535  0.92280074     0.63500
H2044       H  0.04638359  0.27813107  0.94336312     0.07900
F2045       F  0.15093603  0.26036235  0.91822770    -0.19500
F2046       F  0.13806978  0.23487520  0.94433355    -0.15700
F2047       F  0.16566636  0.26012411  0.95382896    -0.19200
F2048       F  0.05280809  0.31649622  0.96323200    -0.22600
F2049       F  0.07189756  0.33768690  0.93691383    -0.24100
F2050       F  0.08040804  0.34070999  0.97453011    -0.18100
F2051       F  0.99490495  0.26575990  0.91469771    -0.20600
F2052       F  0.99181657  0.30401488  0.91815917    -0.21700
F2053       F  0.00678317  0.28342209  0.94663766    -0.18900
F2054       F  0.09682237  0.31641499  0.86609752    -0.19000
F2055       F  0.11259068  0.28873807  0.88752990    -0.22800
F2056       F  0.10641270  0.32350578  0.90287581    -0.24400
C2057       C  0.20159767  0.37735755  0.00335805    -0.11300
C2058       C  0.22439467  0.37489799  0.99603105     0.11300
C2059       C  0.23177853  0.35360809  0.98745059    -0.03100
C2060       C  0.21614416  0.33523321  0.98728393    -0.05800
C2061       C  0.19362572  0.33688167  0.99640118    -0.16600
C2062       C  0.18558782  0.35924823  0.00231500     0.02300
C2063       C  0.24010382  0.39502306  0.99708896     0.12300
C2064       C  0.25626392  0.35016159  0.97886517     0.62900
H2065       H  0.22168222  0.31946855  0.97958950     0.12300
C2066       C  0.16066779  0.36589436  0.00695586     0.55000
H2067       H  0.19601868  0.39397881  0.00933228     0.08100
C2068       C  0.23986297  0.41242508  0.98006950    -0.05700
C2069       C  0.25620891  0.43020355  0.98157367    -0.06400
C2070       C  0.27239882  0.43136664  0.99970330    -0.16000
C2071       C  0.27223741  0.41404854  0.01701802    -0.01600
C2072       C  0.25588818  0.39629013  0.01540492    -0.09100
C2073       C  0.22234880  0.41224896  0.96048373     0.65100
H2074       H  0.25630293  0.44356426  0.96860914     0.10600
C2075       C  0.28956466  0.41369039  0.03676852     0.63500
H2076       H  0.25541452  0.38293350  0.02837378     0.07900
F2077       F  0.15534906  0.38529777  0.99433629    -0.19500
F2078       F  0.15809372  0.37079187  0.03018471    -0.15700
F2079       F  0.14479023  0.34949759  0.00068233    -0.19200
F2080       F  0.27161447  0.35302672  0.99694441    -0.22600
F2081       F  0.26127482  0.36580551  0.96166954    -0.24100
F2082       F  0.25951970  0.32851169  0.96991330    -0.18100
F2083       F  0.28559484  0.43187894  0.05140047    -0.20600
F2084       F  0.31172600  0.41502839  0.02811504    -0.21700
F2085       F  0.28799147  0.39385132  0.04973731    -0.18900
F2086       F  0.22596898  0.42999250  0.94505934    -0.19000
F2087       F  0.20040129  0.41450132  0.96936855    -0.22800
F2088       F  0.22368605  0.39198264  0.94837412    -0.24400
C2089       C  0.23293977  0.17121816  0.01289780    -0.11300
C2090       C  0.23182167  0.18985959  0.99767577     0.11300
C2091       C  0.24862969  0.19229525  0.98021037    -0.03100
C2092       C  0.26638467  0.17616335  0.97897803    -0.05800
C2093       C  0.26902294  0.15870537  0.99556894    -0.16600
C2094       C  0.25133898  0.15545463  0.01224993     0.02300
C2095       C  0.21562897  0.20875558  0.00277931     0.12300
C2096       C  0.24882369  0.21279671  0.96397550     0.62900
H2097       H  0.27962843  0.17819046  0.96597933     0.12300
C2098       C  0.25193462  0.13620485  0.02980782     0.55000
H2099       H  0.21982572  0.16985046  0.02610242     0.08100
C2100       C  0.19314809  0.21015631  0.99345688    -0.05700
C2101       C  0.18108008  0.23096075  0.99547841    -0.06400
C2102       C  0.19074247  0.24990994  0.00697340    -0.16000
C2103       C  0.21159263  0.24671632  0.01971123    -0.01600
C2104       C  0.22393591  0.22644499  0.01665863    -0.09100
C2105       C  0.18218758  0.18983780  0.98146166     0.65100
H2106       H  0.16449626  0.23278369  0.98714894     0.10600
C2107       C  0.22185312  0.26353253  0.03691903     0.63500
H2108       H  0.24066138  0.22454789  0.02486950     0.07900
F2109       F  0.24902513  0.11555494  0.01871630    -0.19500
F2110       F  0.23454022  0.13817652  0.04599990    -0.15700
F2111       F  0.27261128  0.13631020  0.04156127    -0.19200
F2112       F  0.25201805  0.23264806  0.97647418    -0.22600
F2113       F  0.22819021  0.21413149  0.95210052    -0.24100
F2114       F  0.26637614  0.21147369  0.94788771    -0.18100
F2115       F  0.22706856  0.25216039  0.05726567    -0.20600
F2116       F  0.20721141  0.28111838  0.04256886    -0.21700
F2117       F  0.24197316  0.27259634  0.02796248    -0.18900
F2118       F  0.15986656  0.19445107  0.97439852    -0.19000
F2119       F  0.18149508  0.17150823  0.99655222    -0.22800
F2120       F  0.19486616  0.18384011  0.96224912    -0.24400
C2121       C  0.40335803  0.41595299  0.01652794    -0.11300
C2122       C  0.40311900  0.39996287  0.99852950     0.11300
C2123       C  0.38627785  0.40164529  0.98089728    -0.03100
C2124       C  0.37013912  0.41948089  0.98186321    -0.05800
C2125       C  0.36998302  0.43540509  0.00003379    -0.16600
C2126       C  0.38718157  0.43386048  0.01758275     0.02300
C2127       C  0.42036261  0.38121103  0.99883026     0.12300
C2128       C  0.38489258  0.38421406  0.96151960     0.62900
H2129       H  0.35696141  0.42067927  0.96863301     0.12300
C2130       C  0.38898252  0.45115118  0.03706121     0.55000
H2131       H  0.41634800  0.41414574  0.02988477     0.08100
C2132       C  0.44279794  0.38402040  0.98967170    -0.05700
C2133       C  0.45766143  0.36505848  0.98928288    -0.06400
C2134       C  0.45100608  0.34381741  0.99837859    -0.16000
C2135       C  0.42877266  0.34117514  0.00809421    -0.01600
C2136       C  0.41377871  0.36004672  0.00814002    -0.09100
C2137       C  0.45101563  0.40697629  0.98055666     0.65100
H2138       H  0.47484490  0.36675753  0.98221877     0.10600
C2139       C  0.42064166  0.31834521  0.01756817     0.63500
H2140       H  0.39661434  0.35841465  0.01525618     0.07900
F2141       F  0.40880410  0.44814972  0.05009359    -0.19500
F2142       F  0.37034384  0.44887700  0.05171778    -0.15700
F2143       F  0.38952856  0.47304194  0.02803781    -0.19200
F2144       F  0.37874331  0.36320149  0.97052709    -0.22600
F2145       F  0.40594781  0.38228389  0.95062329    -0.24100
F2146       F  0.36871726  0.39023231  0.94497499    -0.18100
F2147       F  0.43381247  0.31224027  0.03653329    -0.20600
F2148       F  0.42264941  0.30177669  0.00069572    -0.21700
F2149       F  0.39783598  0.31906861  0.02446535    -0.18900
F2150       F  0.47334694  0.40591438  0.97229595    -0.19000
F2151       F  0.45050346  0.42295154  0.99809303    -0.22800
F2152       F  0.43692789  0.41422617  0.96270995    -0.24400
C2153       C  0.42514177  0.21728051  0.97321876    -0.11300
C2154       C  0.41359765  0.21186660  0.99367561     0.11300
C2155       C  0.42055607  0.22216345  0.01463865    -0.03100
C2156       C  0.43840923  0.23851641  0.01416401    -0.05800
C2157       C  0.44946288  0.24493196  0.99344600    -0.16600
C2158       C  0.44275622  0.23383946  0.97247000     0.02300
C2159       C  0.39371108  0.19585449  0.99224056     0.12300
C2160       C  0.40902465  0.21593365  0.03733606     0.62900
H2161       H  0.44358037  0.24671676  0.03010990     0.12300
C2162       C  0.45353149  0.23929695  0.94914832     0.55000
H2163       H  0.41959486  0.20875623  0.95755881     0.08100
C2164       C  0.37178158  0.20319307  0.98477826    -0.05700
C2165       C  0.35371721  0.18719328  0.98376610    -0.06400
C2166       C  0.35650670  0.16408154  0.99036146    -0.16000
C2167       C  0.37958472  0.15633829  0.99450361    -0.01600
C2168       C  0.39741437  0.17263211  0.99641704    -0.09100
C2169       C  0.36754764  0.22781950  0.97754099     0.65100
H2170       H  0.33744264  0.19284784  0.97690193     0.10600
C2171       C  0.38730683  0.13156438  0.99635878     0.63500
H2172       H  0.41474799  0.16705723  0.00058219     0.07900
F2173       F  0.44533656  0.22515414  0.93179932    -0.19500
F2174       F  0.47710205  0.23644811  0.95021854    -0.15700
F2175       F  0.44845234  0.26151726  0.94289628    -0.19200
F2176       F  0.41191822  0.19291392  0.04174212    -0.22600
F2177       F  0.38573574  0.22068335  0.03613700    -0.24100
F2178       F  0.41825110  0.22797625  0.05575196    -0.18100
F2179       F  0.40544896  0.12804823  0.98131183    -0.20600
F2180       F  0.37058334  0.11579306  0.99076928    -0.21700
F2181       F  0.39490033  0.12728346  0.01863112    -0.18900
F2182       F  0.34452094  0.23190236  0.97284247    -0.19000
F2183       F  0.37998331  0.23271331  0.95779692    -0.22800
F2184       F  0.37431231  0.24252446  0.99495999    -0.24400
C2185       C  0.87435047  0.29386485  0.92782566    -0.11300
C2186       C  0.89722052  0.29160825  0.93536374     0.11300
C2187       C  0.90194326  0.28902461  0.95925522    -0.03100
C2188       C  0.88348214  0.28957484  0.97492829    -0.05800
C2189       C  0.86064351  0.29285717  0.96755585    -0.16600
C2190       C  0.85580953  0.29399259  0.94351468     0.02300
C2191       C  0.91601925  0.29362412  0.91805280     0.12300
C2192       C  0.92643479  0.28629180  0.96822154     0.62900
H2193       H  0.88691380  0.28822684  0.99326231     0.12300
C2194       C  0.83129083  0.29379901  0.93434269     0.55000
H2195       H  0.87117684  0.29567713  0.90945479     0.08100
C2196       C  0.92335373  0.27511961  0.90431721    -0.05700
C2197       C  0.94195800  0.27845620  0.88904831    -0.06400
C2198       C  0.95301483  0.29966346  0.88655249    -0.16000
C2199       C  0.94563415  0.31818557  0.90080636    -0.01600
C2200       C  0.92681174  0.31484263  0.91567802    -0.09100
C2201       C  0.91110429  0.25219592  0.90527271     0.65100
H2202       H  0.94749126  0.26457329  0.87846114     0.10600
C2203       C  0.95719088  0.34155732  0.90167957     0.63500
H2204       H  0.92065651  0.32890174  0.92612026     0.07900
F2205       F  0.83062978  0.29241899  0.91046002    -0.19500
F2206       F  0.81982634  0.31340857  0.94069078    -0.15700
F2207       F  0.81987350  0.27496151  0.94309269    -0.19200
F2208       F  0.93893920  0.30592668  0.96384165    -0.22600
F2209       F  0.93698380  0.26809903  0.95742927    -0.24100
F2210       F  0.92698104  0.28227475  0.99182008    -0.18100
F2211       F  0.94568220  0.35643122  0.88712161    -0.20600
F2212       F  0.98012796  0.34075875  0.89560959    -0.21700
F2213       F  0.95641122  0.35028123  0.92389985    -0.18900
F2214       F  0.92145028  0.23624168  0.89109257    -0.19000
F2215       F  0.88852427  0.25475616  0.89808608    -0.22800
F2216       F  0.91130315  0.24373899  0.92759029    -0.24400
C2217       C  0.90472737  0.30271328  0.06096170    -0.11300
C2218       C  0.90710480  0.28159951  0.07199358     0.11300
C2219       C  0.89141184  0.26374749  0.06676812    -0.03100
C2220       C  0.87307288  0.26822304  0.05127861    -0.05800
C2221       C  0.87052054  0.28962226  0.04051652    -0.16600
C2222       C  0.88769485  0.30663495  0.04423427     0.02300
C2223       C  0.92569841  0.27965691  0.08964484     0.12300
C2224       C  0.89394203  0.24024964  0.07758849     0.62900
H2225       H  0.86018397  0.25523987  0.04801882     0.12300
C2226       C  0.88962378  0.32891519  0.03083729     0.55000
H2227       H  0.91685540  0.31624639  0.06507311     0.08100
C2228       C  0.94932471  0.27901498  0.08352348    -0.05700
C2229       C  0.96601067  0.28191560  0.10098963    -0.06400
C2230       C  0.95982748  0.28538008  0.12415811    -0.16000
C2231       C  0.93629071  0.28362252  0.13053091    -0.01600
C2232       C  0.91958747  0.28173629  0.11298454    -0.09100
C2233       C  0.95694583  0.27619621  0.05858254     0.65100
H2234       H  0.98405250  0.28288885  0.09639113     0.10600
C2235       C  0.92790783  0.28358905  0.15537108     0.63500
H2236       H  0.90148688  0.28224419  0.11752959     0.07900
F2237       F  0.91224632  0.33218312  0.02404285    -0.19500
F2238       F  0.88327162  0.34682671  0.04495442    -0.15700
F2239       F  0.87637405  0.32932935  0.01101360    -0.19200
F2240       F  0.89120497  0.24159176  0.10126198    -0.22600
F2241       F  0.91554730  0.23161236  0.07285037    -0.24100
F2242       F  0.87772629  0.22503370  0.06907509    -0.18100
F2243       F  0.91817927  0.30451190  0.16037368    -0.20600
F2244       F  0.94533289  0.27911182  0.17107373    -0.21700
F2245       F  0.91133684  0.26678221  0.15820060    -0.18900
F2246       F  0.98055544  0.27331416  0.05693535    -0.19000
F2247       F  0.95105184  0.29528059  0.04583110    -0.22800
F2248       F  0.94645703  0.25724054  0.04898444    -0.24400
C2249       C  0.71408392  0.05188160  0.10848193    -0.11300
C2250       C  0.69462419  0.05353356  0.09409565     0.11300
C2251       C  0.67531372  0.03930190  0.09826306    -0.03100
C2252       C  0.67605802  0.02415392  0.11704391    -0.05800
C2253       C  0.69548245  0.02223157  0.13141068    -0.16600
C2254       C  0.71473710  0.03666474  0.12744502     0.02300
C2255       C  0.69431412  0.07072060  0.07512471     0.12300
C2256       C  0.65396396  0.03995888  0.08291554     0.62900
H2257       H  0.66131191  0.01351283  0.12059465     0.12300
C2258       C  0.73513260  0.03719890  0.14392200     0.55000
H2259       H  0.72868127  0.06284784  0.10485580     0.08100
C2260       C  0.68986277  0.09409867  0.07923553    -0.05700
C2261       C  0.68645627  0.10872976  0.06017103    -0.06400
C2262       C  0.68655554  0.10058802  0.03731157    -0.16000
C2263       C  0.69091517  0.07699664  0.03337490    -0.01600
C2264       C  0.69579321  0.06281526  0.05240403    -0.09100
C2265       C  0.68830999  0.10340814  0.10365494     0.65100
H2266       H  0.68331830  0.12672191  0.06299821     0.10600
C2267       C  0.68857975  0.06601544  0.00975998     0.63500
H2268       H  0.69960891  0.04491878  0.04978623     0.07900
F2269       F  0.75037438  0.05462037  0.13852898    -0.19500
F2270       F  0.74708742  0.01690886  0.14299695    -0.15700
F2271       F  0.72740844  0.04071246  0.16621420    -0.19200
F2272       F  0.65923260  0.03182042  0.06116337    -0.22600
F2273       F  0.64589769  0.06207320  0.08103498    -0.24100
F2274       F  0.63631733  0.02657208  0.09165464    -0.18100
F2275       F  0.70721157  0.07162668  0.99616524    -0.20600
F2276       F  0.66845344  0.07312019  0.99935450    -0.21700
F2277       F  0.68759129  0.04243157  0.01121548    -0.18900
F2278       F  0.68202782  0.12618150  0.10384920    -0.19000
F2279       F  0.70947603  0.10150692  0.11448696    -0.22800
F2280       F  0.67204960  0.09127475  0.11610887    -0.24400
C2281       C  0.66713832  0.07538351  0.92987151    -0.11300
C2282       C  0.68915435  0.06879888  0.92285744     0.11300
C2283       C  0.70864733  0.07855663  0.93371844    -0.03100
C2284       C  0.70527158  0.09496878  0.95112184    -0.05800
C2285       C  0.68325572  0.10147601  0.95863817    -0.16600
C2286       C  0.66365533  0.09027767  0.94856272     0.02300
C2287       C  0.69096739  0.05091881  0.90470739     0.12300
C2288       C  0.73291388  0.07172179  0.92692991     0.62900
H2289       H  0.72002317  0.10278343  0.95899716     0.12300
C2290       C  0.63887856  0.09194459  0.95717477     0.55000
H2291       H  0.65237977  0.06775157  0.92128531     0.08100
C2292       C  0.68558097  0.02774071  0.90935399    -0.05700
C2293       C  0.68544974  0.01213937  0.89090892    -0.06400
C2294       C  0.69230101  0.01851858  0.86858362    -0.16000
C2295       C  0.69822307  0.04151932  0.86404909    -0.01600
C2296       C  0.69703656  0.05750389  0.88218034    -0.09100
C2297       C  0.68020737  0.01943083  0.93367561     0.65100
H2298       H  0.68001227  0.99465407  0.89378657     0.10600
C2299       C  0.70536035  0.04907759  0.84007298     0.63500
H2300       H  0.70062820  0.07536056  0.87887887     0.07900
F2301       F  0.62834094  0.07072445  0.95605508    -0.19500
F2302       F  0.62669721  0.10683111  0.94318509    -0.15700
F2303       F  0.63724030  0.09886834  0.97989742    -0.19200
F2304       F  0.73724754  0.07856284  0.90448481    -0.22600
F2305       F  0.73534649  0.04829806  0.92850264    -0.24100
F2306       F  0.74934941  0.08165666  0.94112180    -0.18100
F2307       F  0.68748555  0.04528305  0.82471114    -0.20600
F2308       F  0.72446896  0.03680526  0.83321942    -0.21700
F2309       F  0.71090250  0.07206795  0.83935334    -0.18900
F2310       F  0.67876744  0.99585292  0.93473351    -0.19000
F2311       F  0.65942279  0.02824026  0.94096896    -0.22800
F2312       F  0.69740886  0.02629419  0.94874833    -0.24400
C2313       C  0.62319468  0.20176673  0.98460027    -0.11300
C2314       C  0.60471084  0.19832010  0.99953800     0.11300
C2315       C  0.60358010  0.17816648  0.01285854    -0.03100
C2316       C  0.62194063  0.16255549  0.01165090    -0.05800
C2317       C  0.64144200  0.16625387  0.99747064    -0.16600
C2318       C  0.64119780  0.18591187  0.98248051     0.02300
C2319       C  0.58581851  0.21532441  0.99922547     0.12300
C2320       C  0.58284530  0.17308913  0.02807005     0.62900
H2321       H  0.62041345  0.14700366  0.02140970     0.12300
C2322       C  0.65888884  0.19211341  0.96394680     0.55000
H2323       H  0.62322522  0.21701891  0.97391309     0.08100
C2324       C  0.58657463  0.23546718  0.01264892    -0.05700
C2325       C  0.56784609  0.25065339  0.01141401    -0.06400
C2326       C  0.54896961  0.24662277  0.99667545    -0.16000
C2327       C  0.54852328  0.22659988  0.98294601    -0.01600
C2328       C  0.56711827  0.21133018  0.98440854    -0.09100
C2329       C  0.60730718  0.24110033  0.02770907     0.65100
H2330       H  0.56801860  0.26613418  0.02161857     0.10600
C2331       C  0.52812601  0.22082003  0.96761202     0.63500
H2332       H  0.56722849  0.19597019  0.97401863     0.07900
F2333       F  0.67104558  0.21120190  0.97104808    -0.19500
F2334       F  0.64747461  0.19737449  0.94357378    -0.15700
F2335       F  0.67443754  0.17526322  0.95865717    -0.19200
F2336       F  0.56331021  0.17097176  0.01451229    -0.22600
F2337       F  0.57962033  0.19059341  0.04369413    -0.24100
F2338       F  0.58550933  0.15303233  0.04047695    -0.18100
F2339       F  0.52648686  0.23654088  0.94983063    -0.20600
F2340       F  0.50819880  0.22110812  0.98064294    -0.21700
F2341       F  0.53011771  0.19935774  0.95785276    -0.18900
F2342       F  0.60409540  0.26100814  0.04012621    -0.19000
F2343       F  0.62654728  0.24392858  0.01396362    -0.22800
F2344       F  0.61136101  0.22363865  0.04328436    -0.24400
C2345       C  0.76340809  0.17513421  0.99505068    -0.11300
C2346       C  0.76218903  0.19152808  0.01260359     0.11300
C2347       C  0.74384942  0.19063900  0.02862497    -0.03100
C2348       C  0.72709467  0.17340044  0.02620911    -0.05800
C2349       C  0.72672935  0.15856195  0.00703420    -0.16600
C2350       C  0.74578012  0.15882108  0.99172447     0.02300
C2351       C  0.77735186  0.21193831  0.01080493     0.12300
C2352       C  0.74079449  0.20906597  0.04684950     0.62900
H2353       H  0.71262301  0.17294678  0.03798250     0.12300
C2354       C  0.74726623  0.14261504  0.97154156     0.55000
H2355       H  0.77757592  0.17628588  0.98296398     0.08100
C2356       C  0.79936756  0.21354631  0.02122042    -0.05700
C2357       C  0.81135638  0.23455419  0.01996302    -0.06400
C2358       C  0.80249257  0.25331040  0.00755725    -0.16000
C2359       C  0.78167822  0.25037368  0.99470255    -0.01600
C2360       C  0.76916727  0.23006550  0.99740520    -0.09100
C2361       C  0.81021004  0.19307351  0.03306178     0.65100
H2362       H  0.82755615  0.23657248  0.02902798     0.10600
C2363       C  0.77180336  0.26729757  0.97733933     0.63500
H2364       H  0.75275546  0.22812997  0.98856719     0.07900
F2365       F  0.74976713  0.12069054  0.97996721    -0.19500
F2366       F  0.76600703  0.14727619  0.95754547    -0.15700
F2367       F  0.72761433  0.14428393  0.95808102    -0.19200
F2368       F  0.73700061  0.22989557  0.03623114    -0.22600
F2369       F  0.76028111  0.21066008  0.06050687    -0.24100
F2370       F  0.72223904  0.20457341  0.06114905    -0.18100
F2371       F  0.76689367  0.25602936  0.95688722    -0.20600
F2372       F  0.78654805  0.28495786  0.97191803    -0.21700
F2373       F  0.75157329  0.27626783  0.98596901    -0.18900
F2374       F  0.83168697  0.19825517  0.04214578    -0.19000
F2375       F  0.81284483  0.17566598  0.01719392    -0.22800
F2376       F  0.79637417  0.18542517  0.05086636    -0.24400
C2377       C  0.59246689  0.41795079  0.99175959    -0.11300
C2378       C  0.59841047  0.39728762  0.00251397     0.11300
C2379       C  0.62036977  0.39497190  0.01300219    -0.03100
C2380       C  0.63531093  0.41396441  0.01326788    -0.05800
C2381       C  0.62923618  0.43475364  0.00281637    -0.16600
C2382       C  0.60748182  0.43689377  0.99185116     0.02300
C2383       C  0.58118644  0.37839668  0.00238327     0.12300
C2384       C  0.62806826  0.37248435  0.02357976     0.62900
H2385       H  0.65213111  0.41262944  0.02132402     0.12300
C2386       C  0.59977058  0.45931604  0.98120012     0.55000
H2387       H  0.57573037  0.41916615  0.98352319     0.08100
C2388       C  0.56265336  0.37761321  0.01823429    -0.05700
C2389       C  0.54671553  0.35949132  0.01678356    -0.06400
C2390       C  0.54834371  0.34263152  0.99963477    -0.16000
C2391       C  0.56699454  0.34346055  0.98374105    -0.01600
C2392       C  0.58305908  0.36146117  0.98543365    -0.09100
C2393       C  0.55951733  0.39609166  0.03632408     0.65100
H2394       H  0.53236748  0.35873582  0.02868324     0.10600
C2395       C  0.57027507  0.32538388  0.96522857     0.63500
H2396       H  0.59715810  0.36268478  0.97326999     0.07900
F2397       F  0.57749758  0.45800649  0.97263879    -0.19500
F2398       F  0.61413607  0.46520820  0.96312987    -0.15700
F2399       F  0.60043603  0.47629673  0.99776666    -0.19200
F2400       F  0.62888874  0.35587937  0.00666659    -0.22600
F2401       F  0.61280221  0.36572039  0.04057100    -0.24100
F2402       F  0.64976404  0.37415315  0.03346364    -0.18100
F2403       F  0.55326829  0.32744694  0.94856620    -0.20600
F2404       F  0.56929699  0.30383240  0.97503168    -0.21700
F2405       F  0.59136837  0.32753639  0.95431985    -0.18900
F2406       F  0.54100965  0.39155188  0.05066966    -0.19000
F2407       F  0.55558997  0.41682824  0.02559399    -0.22800
F2408       F  0.57906943  0.39778232  0.04991814    -0.24400
C2409       C  0.76167686  0.41700068  0.99607711    -0.11300
C2410       C  0.75583007  0.39713423  0.00838129     0.11300
C2411       C  0.73443320  0.39600202  0.02012026    -0.03100
C2412       C  0.71937157  0.41474260  0.01869131    -0.05800
C2413       C  0.72496840  0.43440007  0.00597985    -0.16600
C2414       C  0.74650460  0.43572876  0.99456118     0.02300
C2415       C  0.77234968  0.37766861  0.00875080     0.12300
C2416       C  0.72756351  0.37516705  0.03425339     0.62900
H2417       H  0.70294417  0.41419128  0.02751749     0.12300
C2418       C  0.75370748  0.45708461  0.98151191     0.55000
H2419       H  0.77827421  0.41766337  0.98760460     0.08100
C2420       C  0.77416900  0.36223004  0.99016056    -0.05700
C2421       C  0.78886099  0.34330902  0.99249967    -0.06400
C2422       C  0.80184584  0.33887929  0.01278474    -0.16000
C2423       C  0.79811313  0.35359850  0.03220902    -0.01600
C2424       C  0.78486626  0.37353978  0.02901902    -0.09100
C2425       C  0.76053220  0.36563419  0.96794725     0.65100
H2426       H  0.79014111  0.33149575  0.97822496     0.10600
C2427       C  0.80489544  0.34806781  0.05701356     0.63500
H2428       H  0.78303579  0.38556876  0.04309920     0.07900
F2429       F  0.73954013  0.46021594  0.96252195    -0.19500
F2430       F  0.77618489  0.45570865  0.97372396    -0.15700
F2431       F  0.75211978  0.47586883  0.99586344    -0.19200
F2432       F  0.74175048  0.37328317  0.05338465    -0.22600
F2433       F  0.72943360  0.35562653  0.02103615    -0.24100
F2434       F  0.70507208  0.37657930  0.04199544    -0.18100
F2435       F  0.82667876  0.35653086  0.06164285    -0.20600
F2436       F  0.80383886  0.32485630  0.06123420    -0.21700
F2437       F  0.78987331  0.35813413  0.07249935    -0.18900
F2438       F  0.76359168  0.34778088  0.95262048    -0.19000
F2439       F  0.76760250  0.38550497  0.95714296    -0.22800
F2440       F  0.73727851  0.36710339  0.97281946    -0.24400
C2441       C  0.67823895  0.88713892  0.92651310    -0.11300
C2442       C  0.70087358  0.88810272  0.91830391     0.11300
C2443       C  0.71792456  0.87409922  0.92852575    -0.03100
C2444       C  0.71141512  0.85912056  0.94649881    -0.05800
C2445       C  0.68858590  0.85782419  0.95458743    -0.16600
C2446       C  0.67155254  0.87224060  0.94438228     0.02300
C2447       C  0.70564407  0.90430716  0.89902508     0.12300
C2448       C  0.74281558  0.87498687  0.92053444     0.62900
H2449       H  0.72423865  0.84820787  0.95442523     0.12300
C2450       C  0.64621992  0.87218862  0.95132856     0.55000
H2451       H  0.66557718  0.89812504  0.91838709     0.08100
C2452       C  0.69795837  0.90000718  0.87626720    -0.05700
C2453       C  0.69820041  0.91802590  0.86018520    -0.06400
C2454       C  0.70544836  0.94032715  0.86609837    -0.16000
C2455       C  0.71763339  0.94295911  0.88746848    -0.01600
C2456       C  0.71604581  0.92530108  0.90406867    -0.09100
C2457       C  0.68851251  0.87680016  0.86925709     0.65100
H2458       H  0.69137622  0.91501299  0.84303117     0.10600
C2459       C  0.73370839  0.96276270  0.89269056     0.63500
H2460       H  0.72259613  0.92789602  0.92141073     0.07900
F2461       F  0.63497826  0.85445335  0.94029234    -0.19500
F2462       F  0.63550233  0.89232676  0.94488622    -0.15700
F2463       F  0.64346936  0.87000015  0.97493889    -0.19200
F2464       F  0.75214362  0.89619730  0.92526803    -0.22600
F2465       F  0.74397339  0.87107380  0.89701619    -0.24100
F2466       F  0.75621267  0.85873093  0.93156318    -0.18100
F2467       F  0.72177198  0.98288297  0.89399529    -0.20600
F2468       F  0.75035690  0.96416328  0.87572317    -0.21700
F2469       F  0.74512055  0.95993992  0.91356231    -0.18900
F2470       F  0.68491677  0.87539989  0.84562996    -0.19000
F2471       F  0.66772695  0.87278348  0.88012522    -0.22800
F2472       F  0.70388865  0.85986111  0.87542483    -0.24400
C2473       C  0.69722828  0.90361025  0.04925986    -0.11300
C2474       C  0.69391929  0.89652109  0.07211752     0.11300
C2475       C  0.68793167  0.87360476  0.07681714    -0.03100
C2476       C  0.68625905  0.85824746  0.05824240    -0.05800
C2477       C  0.68920790  0.86523516  0.03508476    -0.16600
C2478       C  0.69468686  0.88853431  0.03049161     0.02300
C2479       C  0.69431602  0.91421163  0.09041310     0.12300
C2480       C  0.68237133  0.86567566  0.10121861     0.62900
H2481       H  0.68185152  0.84059936  0.06166684     0.12300
C2482       C  0.69649210  0.89825582  0.00622685     0.55000
H2483       H  0.70124906  0.92143719  0.04625227     0.08100
C2484       C  0.71492213  0.92207389  0.10078944    -0.05700
C2485       C  0.71354061  0.93893220  0.11808050    -0.06400
C2486       C  0.69242781  0.94853808  0.12475131    -0.16000
C2487       C  0.67211374  0.94220549  0.11227496    -0.01600
C2488       C  0.67341850  0.92449354  0.09607145    -0.09100
C2489       C  0.73815349  0.91258354  0.09366700     0.65100
H2490       H  0.72897995  0.94435538  0.12677657     0.10600
C2491       C  0.64878701  0.95375982  0.11440847     0.63500
H2492       H  0.65792905  0.91897795  0.08711434     0.07900
F2493       F  0.71674666  0.89134771  0.99602308    -0.19500
F2494       F  0.69635998  0.92189446  0.00621640    -0.15700
F2495       F  0.67796032  0.89121782  0.99316597    -0.19200
F2496       F  0.66299867  0.87687454  0.10909842    -0.22600
F2497       F  0.70060551  0.87036857  0.11587964    -0.24100
F2498       F  0.67804409  0.84243935  0.10216984    -0.18100
F2499       F  0.65002997  0.97482033  0.12482105    -0.20600
F2500       F  0.63404457  0.93986390  0.12686638    -0.21700
F2501       F  0.63944420  0.95724501  0.09262998    -0.18900
F2502       F  0.75606404  0.92245212  0.10598248    -0.19000
F2503       F  0.74182706  0.91680867  0.07044666    -0.22800
F2504       F  0.73873287  0.88929722  0.09747380    -0.24400
C2505       C  0.88487635  0.69146680  0.93165462    -0.11300
C2506       C  0.90206264  0.67465412  0.93276314     0.11300
C2507       C  0.90194425  0.65885105  0.95138954    -0.03100
C2508       C  0.88401908  0.65990222  0.96762014    -0.05800
C2509       C  0.86604775  0.67575124  0.96570672    -0.16600
C2510       C  0.86624613  0.69172566  0.94724680     0.02300
C2511       C  0.91953984  0.67337098  0.91387832     0.12300
C2512       C  0.92035299  0.64061266  0.95398882     0.62900
H2513       H  0.88361211  0.64793035  0.98190718     0.12300
C2514       C  0.84711188  0.70870293  0.94255850     0.55000
H2515       H  0.88545216  0.70390903  0.91776826     0.08100
C2516       C  0.91430227  0.66448873  0.89176542    -0.05700
C2517       C  0.93229101  0.66168255  0.87569943    -0.06400
C2518       C  0.95556028  0.66668938  0.88101167    -0.16000
C2519       C  0.96037961  0.67683499  0.90306938    -0.01600
C2520       C  0.94207221  0.68033971  0.91867733    -0.09100
C2521       C  0.88982440  0.65776873  0.88520852     0.65100
H2522       H  0.92813529  0.65534594  0.85864043     0.10600
C2523       C  0.98421403  0.68403986  0.91115320     0.63500
H2524       H  0.94525983  0.68825850  0.93528714     0.07900
F2525       F  0.84086414  0.70770858  0.91946598    -0.19500
F2526       F  0.85499453  0.73046969  0.94738181    -0.15700
F2527       F  0.82756647  0.70448140  0.95543192    -0.19200
F2528       F  0.94157358  0.65069045  0.95777021    -0.22600
F2529       F  0.92126991  0.62749782  0.93417640    -0.24100
F2530       F  0.91595894  0.62618491  0.97247065    -0.18100
F2531       F  0.99008863  0.70468929  0.90118769    -0.20600
F2532       F  0.00018481  0.66765805  0.90579775    -0.21700
F2533       F  0.98515543  0.68688526  0.93490402    -0.18900
F2534       F  0.88874505  0.64774207  0.86358286    -0.19000
F2535       F  0.87597629  0.67691362  0.88476648    -0.22800
F2536       F  0.88116905  0.64233553  0.90111493    -0.24400
C2537       C  0.75777594  0.55567999  0.02635943    -0.11300
C2538       C  0.75885396  0.57047500  0.00730156     0.11300
C2539       C  0.74442607  0.56644600  0.98798832    -0.03100
C2540       C  0.72859684  0.54817388  0.98881635    -0.05800
C2541       C  0.72674810  0.53370437  0.00822621    -0.16600
C2542       C  0.74201241  0.53726975  0.02724721     0.02300
C2543       C  0.77478824  0.59051445  0.00827315     0.12300
C2544       C  0.74585017  0.58144106  0.96657005     0.62900
H2545       H  0.71726273  0.54524526  0.97422244     0.12300
C2546       C  0.74209273  0.52172953  0.04831940     0.55000
H2547       H  0.76922573  0.55898870  0.04079313     0.08100
C2548       C  0.76831162  0.61122745  0.01878013    -0.05700
C2549       C  0.78375427  0.62979532  0.01818753    -0.06400
C2550       C  0.80549232  0.62876275  0.00715845    -0.16000
C2551       C  0.81288803  0.60677746  0.99920835    -0.01600
C2552       C  0.79690163  0.58853596  0.99892463    -0.09100
C2553       C  0.74531551  0.61357210  0.03108253     0.65100
H2554       H  0.77895530  0.64506138  0.02732498     0.10600
C2555       C  0.83708237  0.60089714  0.99106171     0.63500
H2556       H  0.80190682  0.57221348  0.99172781     0.07900
F2557       F  0.76027973  0.52655717  0.06308368    -0.19500
F2558       F  0.74417068  0.49921017  0.04149477    -0.15700
F2559       F  0.72189688  0.52450068  0.06059529    -0.19200
F2560       F  0.76749903  0.57955540  0.95688288    -0.22600
F2561       F  0.74198986  0.60399726  0.97231283    -0.24100
F2562       F  0.72973394  0.57522647  0.95003872    -0.18100
F2563       F  0.84346891  0.57983799  0.99986614    -0.20600
F2564       F  0.85366944  0.61620009  0.99825129    -0.21700
F2565       F  0.83722412  0.59962592  0.96719168    -0.18900
F2566       F  0.74122027  0.63582474  0.03792091    -0.19000
F2567       F  0.74522652  0.59984436  0.05054660    -0.22800
F2568       F  0.72742672  0.60703734  0.01669844    -0.24400
C2569       C  0.94377237  0.65740857  0.08733239    -0.11300
C2570       C  0.93127223  0.67776478  0.08583622     0.11300
C2571       C  0.93740702  0.69632985  0.10036337    -0.03100
C2572       C  0.95544355  0.69342981  0.11653868    -0.05800
C2573       C  0.96762197  0.67283575  0.11827520    -0.16600
C2574       C  0.96267386  0.65501469  0.10233130     0.02300
C2575       C  0.91112891  0.67837007  0.06974470     0.12300
C2576       C  0.92473003  0.71892756  0.09913663     0.62900
H2577       H  0.95959734  0.70697129  0.12858276     0.12300
C2578       C  0.97689895  0.63337134  0.10020688     0.55000
H2579       H  0.93882423  0.64323310  0.07634723     0.08100
C2580       C  0.91356886  0.67907776  0.04535063    -0.05700
C2581       C  0.89364477  0.67726424  0.03141022    -0.06400
C2582       C  0.87154853  0.67518094  0.04104283    -0.16000
C2583       C  0.86909291  0.67628070  0.06541544    -0.01600
C2584       C  0.88903346  0.67685225  0.07932259    -0.09100
C2585       C  0.93703691  0.68188007  0.03409335     0.65100
H2586       H  0.89521926  0.67711255  0.01278664     0.10600
C2587       C  0.84569649  0.67889241  0.07668912     0.63500
H2588       H  0.88753410  0.67628714  0.09796827     0.07900
F2589       F  0.97859788  0.62708094  0.07721738    -0.19500
F2590       F  0.96628800  0.61586626  0.11223840    -0.15700
F2591       F  0.99912257  0.63621784  0.10834423    -0.19200
F2592       F  0.90239243  0.71618599  0.10684953    -0.22600
F2593       F  0.92431880  0.72681513  0.07659845    -0.24100
F2594       F  0.93525073  0.73541718  0.11268516    -0.18100
F2595       F  0.83204631  0.65999445  0.07261472    -0.20600
F2596       F  0.83514452  0.69813302  0.06779893    -0.21700
F2597       F  0.84748640  0.68159207  0.10040285    -0.18900
F2598       F  0.93527903  0.68406741  0.01031088    -0.19000
F2599       F  0.95065903  0.66311884  0.03874593    -0.22800
F2600       F  0.94778476  0.70124166  0.04255008    -0.24400
C2601       C  0.77529913  0.73917525  0.02022983    -0.11300
C2602       C  0.78292000  0.75639114  0.00535375     0.11300
C2603       C  0.80519475  0.75500791  0.99569149    -0.03100
C2604       C  0.81762632  0.73444878  0.99829595    -0.05800
C2605       C  0.80878285  0.71597388  0.01120333    -0.16600
C2606       C  0.78832813  0.71949362  0.02434448     0.02300
C2607       C  0.76644185  0.77503655  0.00008939     0.12300
C2608       C  0.81567475  0.77520633  0.98302974     0.62900
H2609       H  0.83386987  0.73247305  0.98947697     0.12300
C2610       C  0.77933417  0.70361050  0.04311116     0.55000
H2611       H  0.75877553  0.74113632  0.02871371     0.08100
C2612       C  0.74960651  0.77241817  0.98253598    -0.05700
C2613       C  0.73144058  0.78816335  0.98134339    -0.06400
C2614       C  0.72865263  0.80533372  0.99802071    -0.16000
C2615       C  0.74600438  0.80851379  0.01507778    -0.01600
C2616       C  0.76487578  0.79336774  0.01556033    -0.09100
C2617       C  0.74962992  0.75190162  0.96645194     0.65100
H2618       H  0.71801748  0.78597196  0.96847664     0.10600
C2619       C  0.74399610  0.82668759  0.03359706     0.63500
H2620       H  0.77782752  0.79474947  0.02900439     0.07900
F2621       F  0.75957210  0.69278796  0.03535938    -0.19500
F2622       F  0.77390114  0.71625579  0.06252629    -0.15700
F2623       F  0.79514099  0.68739886  0.04993789    -0.19200
F2624       F  0.81660697  0.79376548  0.99773775    -0.22600
F2625       F  0.80249288  0.78087339  0.96395304    -0.06100
F2626       F  0.83783916  0.77063788  0.97563264    -0.18100
F2627       F  0.76169890  0.82532424  0.04963529    -0.20600
F2628       F  0.72345460  0.82407519  0.04530252    -0.21700
F2629       F  0.74490373  0.84810289  0.02360931    -0.18900
F2630       F  0.73238374  0.75329580  0.94992605    -0.19000
F2631       F  0.74614583  0.73214581  0.97910226    -0.22800
F2632       F  0.77043631  0.75037286  0.95506458    -0.24400
C2633       C  0.61306246  0.57016561  0.99285328    -0.11300
C2634       C  0.59461954  0.56792679  0.00825416     0.11300
C2635       C  0.59277557  0.54811373  0.02219711    -0.03100
C2636       C  0.61029512  0.53154742  0.02093997    -0.05800
C2637       C  0.62890068  0.53379261  0.00557915    -0.16600
C2638       C  0.63029067  0.55340454  0.99115154     0.02300
C2639       C  0.57703714  0.58632469  0.00843981     0.12300
C2640       C  0.57220414  0.54432076  0.03795275     0.62900
H2641       H  0.60936587  0.51640229  0.03167327     0.12300
C2642       C  0.65004964  0.55701102  0.97437178     0.55000
H2643       H  0.61372673  0.58525335  0.98201242     0.08100
C2644       C  0.57980437  0.60636496  0.02180373    -0.05700
C2645       C  0.56273108  0.62334778  0.02052768    -0.06400
C2646       C  0.54379944  0.62142118  0.00547562    -0.16000
C2647       C  0.54134914  0.60154738  0.99164480    -0.01600
C2648       C  0.55805645  0.58424222  0.99353595    -0.09100
C2649       C  0.60113067  0.61017986  0.03661074     0.65100
H2650       H  0.56443728  0.63872759  0.03075552     0.10600
C2651       C  0.52102027  0.59828606  0.97535164     0.63500
H2652       H  0.55666092  0.56896157  0.98311161     0.07900
F2653       F  0.64946908  0.57848062  0.96432920    -0.19500
F2654       F  0.64875951  0.54105921  0.95683512    -0.15700
F2655       F  0.67085874  0.55486143  0.98586959    -0.19200
F2656       F  0.55214588  0.54411312  0.02501061    -0.22600
F2657       F  0.57090153  0.56158749  0.05411184    -0.24100
F2658       F  0.57363540  0.52375264  0.04970153    -0.18100
F2659       F  0.52197865  0.61420488  0.95770108    -0.20600
F2660       F  0.50062055  0.60079243  0.98735799    -0.21700
F2661       F  0.52094639  0.57681933  0.96537816    -0.18900
F2662       F  0.60002609  0.63049317  0.04873671    -0.19000
F2663       F  0.62040936  0.61095401  0.02266497    -0.22800
F2664       F  0.60361961  0.59265355  0.05242202    -0.24400
C2665       C  0.40303703  0.55065274  0.98591933    -0.11300
C2666       C  0.39906679  0.56920547  0.00063771     0.11300
C2667       C  0.37824772  0.57039221  0.01321636    -0.03100
C2668       C  0.36280615  0.55188045  0.01206985    -0.05800
C2669       C  0.36671388  0.53318257  0.99745041    -0.16600
C2670       C  0.38688055  0.53277709  0.98359778     0.02300
C2671       C  0.41641503  0.58786788  0.00150443     0.12300
C2672       C  0.37200308  0.59151861  0.02702664     0.62900
H2673       H  0.34705856  0.55221523  0.02205674     0.12300
C2674       C  0.39141606  0.51368990  0.96648813     0.55000
H2675       H  0.41876730  0.55057949  0.97589865     0.08100
C2676       C  0.43521977  0.58755217  0.01713850    -0.05700
C2677       C  0.45054774  0.60620331  0.01728548    -0.06400
C2678       C  0.44783256  0.62479946  0.00214245    -0.16000
C2679       C  0.42880547  0.62516858  0.98666682    -0.01600
C2680       C  0.41357325  0.60643194  0.98645582    -0.09100
C2681       C  0.43941571  0.56737615  0.03314843     0.65100
H2682       H  0.46523254  0.60612741  0.02888550     0.10600
C2683       C  0.42390913  0.64556984  0.97118244     0.63500
H2684       H  0.39905888  0.60617322  0.97464175     0.07900
F2685       F  0.41287852  0.51574733  0.95630219    -0.19500
F2686       F  0.37505794  0.51431311  0.94906427    -0.15700
F2687       F  0.39046545  0.49277272  0.97758706    -0.19200
F2688       F  0.37016130  0.61003921  0.01228804    -0.22600
F2689       F  0.38874775  0.59607297  0.04341636    -0.24100
F2690       F  0.35117293  0.58895235  0.03833132    -0.18100
F2691       F  0.44057030  0.64730713  0.95425373    -0.20600
F2692       F  0.42376019  0.66532250  0.98425144    -0.21700
F2693       F  0.40270059  0.64370262  0.96030342    -0.18900
F2694       F  0.45781554  0.57124318  0.04794572    -0.19000
F2695       F  0.44419924  0.54819790  0.02016888    -0.22800
F2696       F  0.42017721  0.56315805  0.04651468    -0.24400
C2697       C  0.43143867  0.75700262  0.98795049    -0.11300
C2698       C  0.41543586  0.75694333  0.00601850     0.11300
C2699       C  0.41678948  0.74003194  0.02344379    -0.03100
C2700       C  0.43471477  0.72394402  0.02244438    -0.05800
C2701       C  0.45051064  0.72349678  0.00402426    -0.16600
C2702       C  0.44888163  0.74042477  0.98638408     0.02300
C2703       C  0.39556928  0.77274769  0.00420548     0.12300
C2704       C  0.39875784  0.73834846  0.04238486     0.62900
H2705       H  0.43590025  0.71088794  0.03566638     0.12300
C2706       C  0.46504503  0.74107425  0.96576172     0.55000
H2707       H  0.42949195  0.76974779  0.97449454     0.08100
C2708       C  0.39603546  0.79529080  0.01272430    -0.05700
C2709       C  0.37605355  0.80878213  0.01038678    -0.06400
C2710       C  0.35587621  0.80075292  0.99913959    -0.16000
C2711       C  0.35752178  0.77941174  0.98714917    -0.01600
C2712       C  0.37664748  0.76537457  0.99129646    -0.09100
C2713       C  0.41774572  0.80518684  0.02357575     0.65100
H2714       H  0.37657893  0.82604227  0.01678940     0.10600
C2715       C  0.34080482  0.77033146  0.96906402     0.63500
H2716       H  0.37732892  0.74859556  0.98340609     0.07900
F2717       F  0.46184540  0.76044597  0.95238121    -0.19500
F2718       F  0.46102665  0.72231744  0.95182796    -0.15700
F2719       F  0.48770595  0.74103622  0.97320940    -0.19200
F2720       F  0.37738396  0.73411880  0.03267301    -0.22600
F2721       F  0.39781402  0.75850278  0.05467199    -0.24100
F2722       F  0.40354562  0.72090080  0.05784025    -0.18100
F2723       F  0.35299669  0.76380431  0.94964078    -0.20600
F2724       F  0.32487628  0.78606093  0.96180749    -0.21700
F2725       F  0.32943032  0.75140968  0.97775952    -0.18900
F2726       F  0.41455857  0.82741529  0.03095375    -0.19000
F2727       F  0.43533733  0.80519061  0.00752094    -0.22800
F2728       F  0.42441881  0.79228094  0.04243664    -0.24400
C2729       C  0.56544738  0.75609459  0.01809418    -0.11300
C2730       C  0.58534251  0.75147880  0.00524964     0.11300
C2731       C  0.58731835  0.73043094  0.99345885    -0.03100
C2732       C  0.56866490  0.71504198  0.99403220    -0.05800
C2733       C  0.54866006  0.71966382  0.00673817    -0.16600
C2734       C  0.54695791  0.74047890  0.01912072     0.02300
C2735       C  0.60401222  0.76892634  0.00464061     0.12300
C2736       C  0.60921979  0.72413201  0.98070721     0.62900
H2737       H  0.56973174  0.69896132  0.98489585     0.12300
C2738       C  0.52554818  0.74649898  0.03282163     0.55000
H2739       H  0.56456331  0.77213361  0.02731884     0.08100
C2740       C  0.60362463  0.78752829  0.98911014    -0.05700
C2741       C  0.62260135  0.80257069  0.98862898    -0.06400
C2742       C  0.64199307  0.79982956  0.00326855    -0.16000
C2743       C  0.64059500  0.78261120  0.02095858    -0.01600
C2744       C  0.62213588  0.76697295  0.02042976    -0.09100
C2745       C  0.58306844  0.79154478  0.97328136     0.65100
H2746       H  0.62178468  0.81700306  0.97709677     0.10600
C2747       C  0.65766727  0.77907341  0.04075153     0.63500
H2748       H  0.62161477  0.75308060  0.03285377     0.07900
F2749       F  0.52652155  0.76856212  0.04131200    -0.19500
F2750       F  0.52330635  0.73180018  0.05140901    -0.15700
F2751       F  0.50624819  0.74476983  0.01885906    -0.19200
F2752       F  0.62730223  0.72266189  0.99624776    -0.22600
F2753       F  0.61431502  0.74052834  0.96426748    -0.24100
F2754       F  0.60719729  0.70330898  0.96960253    -0.18100
F2755       F  0.64573186  0.77505917  0.06105697    -0.20600
F2756       F  0.67186346  0.79747623  0.04491568    -0.21700
F2757       F  0.67109574  0.76018176  0.03610827    -0.18900
F2758       F  0.58657275  0.80985836  0.95852740    -0.19000
F2759       F  0.56377307  0.79605688  0.98643402    -0.22800
F2760       F  0.57893633  0.77242299  0.95991678    -0.24400
loop_ 
_geom_bond_atom_site_label_1 
_geom_bond_atom_site_label_2 
_geom_bond_distance 
_geom_bond_site_symmetry_2 
_ccdc_geom_bond_type 
O1            V9   1.903       .  S
O1           C11   1.265   1_556  A
O2            V9   1.900       .  S
O2           C12   1.263   1_556  A
O3            V9   1.901       .  S
O3           C13   1.264   1_556  A
O4            V9   1.901       .  S
O4           C14   1.264   1_556  A
O5           V10   1.903       .  S
O5           C14   1.265       .  A
O6           V10   1.902       .  S
O6           C13   1.266       .  A
O7           V10   1.903       .  S
O7           C12   1.265       .  A
O8           V10   1.903       .  S
O8           C11   1.264       .  A
V9           V10   2.084   1_556  T
C11        C2733   1.482       .  S
C12        C2678   1.483       .  S
C13        C2701   1.491       .  S
C14        C2646   1.484       .  S
C15          C16   1.535   1_554  S
C15          C21   1.543       .  S
C15          C19   1.543       .  S
C15        C2550   1.554       .  S
C16          H23   1.084       .  S
C16          C17   1.367       .  D
C17          C18   1.550   1_556  S
C17        C2509   1.486       .  S
C18          C22   1.548       .  S
C18          C20   1.537       .  S
C18          H24   1.110       .  S
C19          H25   1.086       .  S
C19          C20   1.368       .  D
C20        C2582   1.495       .  S
C21          H26   1.083       .  S
C21          C22   1.367       .  D
C22        C2605   1.501       .  S
C27          C28   1.535   1_556  S
C27          C33   1.531   1_556  S
C27          C31   1.548       .  S
C27        C2742   1.547   1_556  S
C28          H35   1.087       .  S
C28          C29   1.369       .  D
C29          C30   1.544   1_554  S
C29        C2477   1.501       .  S
C30          C34   1.543       .  S
C30          C32   1.547       .  S
C30          H36   1.100       .  S
C31          H37   1.079       .  S
C31          C32   1.369       .  D
C32        C2445   1.497       .  S
C33          H38   1.086       .  S
C33          C34   1.365   1_554  D
C34        C2614   1.492       .  S
O39          V47   1.909       .  S
O39          C49   1.266       .  A
O40          V47   1.904       .  S
O40          C50   1.265       .  A
O41          V47   1.902       .  S
O41          C51   1.265       .  A
O42          V47   1.905       .  S
O42          C52   1.266       .  A
O43          V48   1.902       .  S
O43          C52   1.264   1_556  A
O44          V48   1.905       .  S
O44          C51   1.264   1_556  A
O45          V48   1.906       .  S
O45          C50   1.265   1_556  A
O46          V48   1.906       .  S
O46          C49   1.267   1_556  A
V47          V48   2.085   1_554  T
C49        C2541   1.500       .  S
C50        C2381   1.482       .  S
C51        C2413   1.483       .  S
C52        C2637   1.487       .  S
C53          C54   1.526       .  S
C53          C59   1.521   1_556  S
C53          C57   1.561   1_556  S
C53        C2317   1.545       .  S
C54          H61   1.084       .  S
C54          C55   1.363       .  D
C55          C56   1.562       .  S
C55        C2285   1.507       .  S
C56          C60   1.559   1_556  S
C56          C58   1.535   1_556  S
C56          H62   1.103       .  S
C57          H63   1.082       .  S
C57          C58   1.374       .  D
C58        C2262   1.498       .  S
C59          H64   1.087       .  S
C59          C60   1.362       .  D
C60        C2349   1.504       .  S
C65          C66   1.538       .  S
C65          C71   1.530       .  S
C65          C69   1.554   1_554  S
C65        C2422   1.553       .  S
C66          H73   1.074       .  S
C66          C67   1.368       .  D
C67          C68   1.545       .  S
C67        C2221   1.493       .  S
C68          C72   1.546       .  S
C68          C70   1.535   1_554  S
C68          H74   1.111       .  S
C69          H75   1.085       .  S
C69          C70   1.369       .  D
C70        C2189   1.493       .  S
C71          H76   1.086       .  S
C71          C72   1.364       .  D
C72        C2358   1.495       .  S
O77          V85   1.895       .  S
O77          C87   1.262       .  A
O78          V85   1.897       .  S
O78          C88   1.262       .  A
O79          V85   1.907       .  S
O79          C89   1.266       .  A
O80          V85   1.906       .  S
O80          C90   1.265       .  A
O81          V86   1.900       .  S
O81          C90   1.264   1_554  A
O82          V86   1.900       .  S
O82          C89   1.263   1_554  A
O83          V86   1.911       .  S
O83          C88   1.269   1_554  A
O84          V86   1.910       .  S
O84          C87   1.268   1_554  A
V85          V86   2.083   1_556  T
C87        C2390   1.488       .  S
C88        C2157   1.500       .  S
C89        C2134   1.480       .  S
C90        C2326   1.483       .  S
C91          C92   1.526       .  S
C91          C97   1.546   1_556  S
C91          C95   1.548   1_556  S
C91        C2061   1.549       .  S
C92          H99   1.087       .  S
C92          C93   1.362       .  D
C93          C94   1.549   1_556  S
C93        C2029   1.485       .  S
C94          C98   1.544       .  S
C94          C96   1.537       .  S
C94         H100   1.110       .  S
C95         H101   1.082       .  S
C95          C96   1.369       .  D
C96        C1997   1.491       .  S
C97         H102   1.081       .  S
C97          C98   1.367       .  D
C98        C2102   1.499       .  S
C103        C104   1.533   1_556  S
C103        C109   1.545       .  S
C103        C107   1.535       .  S
C103       C2166   1.549       .  S
C104        H111   1.085       .  S
C104        C105   1.365       .  D
C105        C106   1.546   1_554  S
C105       C1933   1.487       .  S
C106        C110   1.545       .  S
C106        C108   1.544       .  S
C106        H112   1.100       .  S
C107        H113   1.086       .  S
C107        C108   1.369       .  D
C108       C1965   1.498       .  S
C109        H114   1.083       .  S
C109        C110   1.369       .  D
C110       C2093   1.503       .  S
C115        C116   1.531   1_556  S
C115        C121   1.540       .  S
C115        C119   1.551       .  S
C115       C1869   1.550       .  S
C116        H123   1.085       .  S
C116        C117   1.361       .  D
C117        C118   1.541   1_554  S
C117       C1805   1.488       .  S
C118        C122   1.545       .  S
C118        C120   1.545       .  S
C118        H124   1.105       .  S
C119        H125   1.083       .  S
C119        C120   1.371       .  D
C120       C1846   1.496       .  S
C121        H126   1.084       .  S
C121        C122   1.370       .  D
C122       C1901   1.502       .  S
C127        C128   1.532   1_554  S
C127        C133   1.543       .  S
C127        C131   1.541       .  S
C127       C2710   1.550   1_554  S
C128        H135   1.083       .  S
C128        C129   1.367       .  D
C129        C130   1.553   1_556  S
C129       C1741   1.506       .  S
C130        C134   1.539       .  S
C130        C132   1.554       .  S
C130        H136   1.106       .  S
C131        H137   1.083       .  S
C131        C132   1.367       .  D
C132       C1773   1.498       .  S
C133        H138   1.085       .  S
C133        C134   1.369       .  D
C134       C1910   1.496       .  S
O139        V147   1.901       .  S
O139        C149   1.265   1_554  A
O140        V147   1.902       .  S
O140        C150   1.264   1_554  A
O141        V147   1.904       .  S
O141        C151   1.264   1_554  A
O142        V147   1.903       .  S
O142        C152   1.264   1_554  A
O143        V148   1.906       .  S
O143        C152   1.266       .  A
O144        V148   1.903       .  S
O144        C151   1.266       .  A
O145        V148   1.906       .  S
O145        C150   1.267       .  A
O146        V148   1.903       .  S
O146        C149   1.264       .  A
V147        V148   2.083   1_554  T
C149       C2669   1.485       .  S
C150       C2070   1.493       .  S
C151       C2125   1.493   1_556  S
C152       C1878   1.488       .  S
O153        V161   1.901       .  S
O153        C163   1.265       .  A
O154        V161   1.898       .  S
O154        C164   1.265       .  A
O155        V161   1.903       .  S
O155        C165   1.266       .  A
O156        V161   1.905       .  S
O156        C166   1.266       .  A
O157        V162   1.905       .  S
O157        C166   1.264       .  A
O158        V162   1.903       .  S
O158        C165   1.264       .  A
O159        V162   1.908       .  S
O159        C164   1.265       .  A
O160        V162   1.905       .  S
O160        C163   1.265       .  A
V161        V162   2.083       .  T
C163       C1677   1.488       .  S
C164       C1645   1.487       .  S
C165       C1718   1.492       .  S
C166       C1613   1.490       .  S
C167        C168   1.526   1_565  S
C167        C173   1.534       .  S
C167        C171   1.547       .  S
C167       C1526   1.554       .  S
C168        H175   1.082       .  S
C168        C169   1.367       .  D
C169        C170   1.565   1_545  S
C169       C1549   1.511       .  S
C170        C174   1.552       .  S
C170        C172   1.549       .  S
C170        H176   1.098       .  S
C171        H177   1.084       .  S
C171        C172   1.381       .  D
C172       C1485   1.514       .  S
C173        H178   1.086       .  S
C173        C174   1.359       .  D
C174       C1581   1.502       .  S
C179        C180   1.531       .  S
C179        C185   1.538       .  S
C179        C183   1.543       .  S
C179       C1686   1.550       .  S
C180        H187   1.086       .  S
C180        C181   1.378       .  D
C181        C182   1.554       .  S
C181       C2454   1.522       .  S
C182        C186   1.549       .  S
C182        C184   1.546   1_565  S
C182        H188   1.098       .  S
C183        H189   1.084   1_565  S
C183        C184   1.360   1_565  D
C184       C2294   1.487       .  S
C185        H190   1.083       .  S
C185        C186   1.367       .  D
C186       C1590   1.502       .  S
O191        V199   1.902       .  S
O191        C201   1.263       .  A
O192        V199   1.901       .  S
O192        C202   1.264       .  A
O193        V199   1.906       .  S
O193        C203   1.265       .  A
O194        V199   1.903       .  S
O194        C204   1.267       .  A
O195        V200   1.902       .  S
O195        C204   1.264       .  A
O196        V200   1.903       .  S
O196        C203   1.265       .  A
O197        V200   1.902       .  S
O197        C202   1.266       .  A
O198        V200   1.905       .  S
O198        C201   1.266       .  A
V199        V200   2.083       .  T
C201       C1421   1.488       .  S
C202       C1517   1.488       .  S
C203       C1622   1.485       .  S
C204       C1453   1.494       .  S
C205        C206   1.529       .  S
C205        C211   1.528       .  S
C205        C209   1.560       .  S
C205       C1357   1.546       .  S
C206        H213   1.087       .  S
C206        C207   1.363       .  D
C207        C208   1.552       .  S
C207       C1334   1.494       .  S
C208        C212   1.548       .  S
C208        C210   1.539       .  S
C208        H214   1.103       .  S
C209        H215   1.081   1_565  S
C209        C210   1.375       .  D
C210       C1302   1.504   1_565  S
C211        H216   1.086       .  S
C211        C212   1.362       .  D
C212       C1389   1.494       .  S
C217        C218   1.531       .  S
C217        C223   1.548       .  S
C217        C221   1.538       .  S
C217       C1709   1.551       .  S
C218        H225   1.085   1_565  S
C218        C219   1.365       .  D
C219        C220   1.547       .  S
C219       C1974   1.496   1_565  S
C220        C224   1.543       .  S
C220        C222   1.542       .  S
C220        H226   1.102       .  S
C221        H227   1.084       .  S
C221        C222   1.367       .  D
C222       C1750   1.491       .  S
C223        H228   1.083       .  S
C223        C224   1.371       .  D
C224       C1398   1.502       .  S
O229        V237   1.896       .  S
O229        C239   1.262       .  A
O230        V237   1.895       .  S
O230        C240   1.263       .  A
O231        V237   1.904       .  S
O231        C241   1.265       .  A
O232        V237   1.906       .  S
O232        C242   1.265       .  A
O233        V238   1.897       .  S
O233        C242   1.264       .  A
O234        V238   1.897       .  S
O234        C241   1.263       .  A
O235        V238   1.905       .  S
O235        C240   1.265       .  A
O236        V238   1.909       .  S
O236        C239   1.267       .  A
V237        V238   2.084       .  T
C239       C1654   1.483       .  S
C240       C1261   1.483       .  S
C241       C1229   1.478       .  S
C242       C1366   1.486       .  S
C243        C244   1.551       .  S
C243        C249   1.545       .  S
C243        C247   1.535   1_565  S
C243       C1165   1.562       .  S
C244        H251   1.084       .  S
C244        C245   1.372       .  D
C245        C246   1.536       .  S
C245       C1782   1.495       .  S
C246        C250   1.552       .  S
C246        C248   1.555   1_565  S
C246        H252   1.104       .  S
C247        H253   1.086       .  S
C247        C248   1.372       .  D
C248       C1942   1.515       .  S
C249        H254   1.080       .  S
C249        C250   1.365       .  D
C250       C1197   1.506       .  S
C255        C256   1.528   1_565  S
C255        C261   1.532       .  S
C255        C259   1.553       .  S
C255       C1270   1.544       .  S
C256        H263   1.086       .  S
C256        C257   1.365       .  D
C257        C258   1.552   1_545  S
C257       C1110   1.494       .  S
C258        C262   1.547       .  S
C258        C260   1.541       .  S
C258        H264   1.105       .  S
C259        H265   1.083       .  S
C259        C260   1.370       .  D
C260       C1142   1.501       .  S
C261        H266   1.085       .  S
C261        C262   1.363       .  D
C262       C1206   1.487       .  S
C267        C268   1.540   1_565  S
C267        C273   1.525       .  S
C267        C271   1.538       .  S
C267       C1046   1.542       .  S
C268        H275   1.087       .  S
C268        C269   1.367       .  D
C269        C270   1.538   1_545  S
C269       C2253   1.492       .  S
C270        C274   1.558       .  S
C270        C272   1.555       .  S
C270        H276   1.105       .  S
C271        H277   1.084       .  S
C271        C272   1.365       .  D
C272       C2486   1.499       .  S
C273        H278   1.080       .  S
C273        C274   1.366       .  D
C274       C1069   1.501       .  S
C279        C280   1.532       .  S
C279        C285   1.544       .  S
C279        C283   1.540   1_565  S
C279       C1462   1.545       .  S
C280        H287   1.087       .  S
C280        C281   1.367       .  D
C281        C282   1.545       .  S
C281        C973   1.497       .  S
C282        C286   1.545       .  S
C282        C284   1.543   1_565  S
C282        H288   1.102       .  S
C283        H289   1.083       .  S
C283        C284   1.367       .  D
C284       C1005   1.489       .  S
C285        H290   1.085       .  S
C285        C286   1.364       .  D
C286       C1078   1.492       .  S
O291        V299   1.901   1_545  S
O291        C301   1.263   1_545  A
O292        V299   1.901       .  S
O292        C302   1.265       .  A
O293        V299   1.900       .  S
O293        C303   1.264       .  A
O294        V299   1.904       .  S
O294        C304   1.266       .  A
O295        V300   1.893       .  S
O295        C304   1.262       .  A
O296        V300   1.899       .  S
O296        C303   1.264       .  A
O297        V300   1.909       .  S
O297        C302   1.266       .  A
O298        V300   1.907       .  S
O298        C301   1.268       .  A
V299        V300   2.083       .  T
C301       C1174   1.504       .  S
C302       C1430   1.487       .  S
C303       C1037   1.487       .  S
C304       C1238   1.482       .  S
O305        V313   1.900       .  S
O305        C315   1.263       .  A
O306        V313   1.904       .  S
O306        C316   1.264       .  A
O307        V313   1.912       .  S
O307        C317   1.267       .  A
O308        V313   1.913       .  S
O308        C318   1.269       .  A
O309        V314   1.902       .  S
O309        C318   1.263   1_455  A
O310        V314   1.896       .  S
O310        C317   1.262   1_455  A
O311        V314   1.904       .  S
O311        C316   1.267   1_455  A
O312        V314   1.906       .  S
O312        C315   1.265   1_455  A
V313        V314   2.083   1_655  T
C315        C909   1.481       .  S
C316        C845   1.499       .  S
C317        C941   1.484       .  S
C318        C877   1.496       .  S
C319        C320   1.534       .  S
C319        C325   1.531       .  S
C319        C323   1.551   1_655  S
C319        C781   1.547       .  S
C320        H327   1.087       .  S
C320        C321   1.363       .  D
C321        C322   1.540       .  S
C321       C1494   1.486       .  S
C322        C326   1.547       .  S
C322        C324   1.543   1_655  S
C322        H328   1.102       .  S
C323        H329   1.079       .  S
C323        C324   1.369       .  D
C324       C1325   1.490       .  S
C325        H330   1.087   1_655  S
C325        C326   1.368       .  D
C326        C813   1.503       .  S
C331        C332   1.529   1_655  S
C331        C337   1.529       .  S
C331        C335   1.559       .  S
C331        C918   1.549       .  S
C332        H339   1.083       .  S
C332        C333   1.359       .  D
C333        C334   1.547   1_455  S
C333       C1837   1.491       .  S
C334        C338   1.540       .  S
C334        C336   1.549       .  S
C334        H340   1.098       .  S
C335        H341   1.080       .  S
C335        C336   1.384       .  D
C336       C2518   1.523       .  S
C337        H342   1.087       .  S
C337        C338   1.359       .  D
C338        C822   1.482       .  S
O343        V351   1.902       .  S
O343        C353   1.265       .  A
O344        V351   1.905       .  S
O344        C354   1.265       .  A
O345        V351   1.901       .  S
O345        C355   1.264       .  A
O346        V351   1.902       .  S
O346        C356   1.264       .  A
O347        V352   1.897       .  S
O347        C356   1.264   1_455  A
O348        V352   1.894       .  S
O348        C355   1.263   1_455  A
O349        V352   1.906       .  S
O349        C354   1.266   1_455  A
O350        V352   1.905       .  S
O350        C353   1.265   1_455  A
V351        V352   2.086   1_655  T
C353        C749   1.487       .  S
C354        C886   1.489       .  S
C355        C790   1.471       .  S
C356        C717   1.486       .  S
C357        C358   1.530   1_455  S
C357        C363   1.532       .  S
C357        C361   1.548       .  S
C357        C653   1.544       .  S
C358        H365   1.086       .  S
C358        C359   1.362       .  D
C359        C360   1.543   1_655  S
C359       C2573   1.491       .  S
C360        C364   1.551       .  S
C360        C362   1.543       .  S
C360        H366   1.103       .  S
C361        H367   1.080       .  S
C361        C362   1.369       .  D
C362       C1814   1.490       .  S
C363        H368   1.086       .  S
C363        C364   1.370       .  D
C364        C694   1.507       .  S
C369        C370   1.550       .  S
C369        C375   1.535       .  S
C369        C373   1.529   1_455  S
C369        C758   1.546   1_455  S
C370        H377   1.083       .  S
C370        C371   1.370       .  D
C371        C372   1.549       .  S
C371       C1133   1.498       .  S
C372        C376   1.547       .  S
C372        C374   1.548   1_455  S
C372        H378   1.104       .  S
C373        H379   1.087       .  S
C373        C374   1.363       .  D
C374        C982   1.495       .  S
C375        H380   1.086   1_455  S
C375        C376   1.364       .  D
C376        C685   1.492       .  S
O381        V389   1.899       .  S
O381        C391   1.263       .  A
O382        V389   1.898       .  S
O382        C392   1.264   1_455  A
O383        V389   1.910       .  S
O383        C393   1.269   1_455  A
O384        V389   1.909       .  S
O384        C394   1.266       .  A
O385        V390   1.892       .  S
O385        C394   1.262   1_655  A
O386        V390   1.886       .  S
O386        C393   1.259       .  A
O387        V390   1.903       .  S
O387        C392   1.264       .  A
O388        V390   1.903       .  S
O388        C391   1.265   1_655  A
V389        V390   2.084   1_455  T
C391        C662   1.481       .  S
C392        C589   1.480       .  S
C393        C621   1.496       .  S
C394        C726   1.480       .  S
C395        C396   1.532       .  S
C395        C401   1.536       .  S
C395        C399   1.542   1_455  S
C395        C534   1.547       .  S
C396        H403   1.084       .  S
C396        C397   1.372       .  D
C397        C398   1.561       .  S
C397       C1293   1.506       .  S
C398        C402   1.559       .  S
C398        C400   1.536   1_455  S
C398        H404   1.106       .  S
C399        H405   1.086       .  S
C399        C400   1.365       .  D
C400       C1558   1.491       .  S
C401        H406   1.083       .  S
C401        C402   1.360       .  D
C402        C566   1.507       .  S
C407        C408   1.528       .  S
C407        C413   1.532       .  S
C407        C411   1.552   1_655  S
C407        C950   1.556       .  S
C408        H415   1.085       .  S
C408        C409   1.363       .  D
C409        C410   1.560       .  S
C409       C2198   1.504       .  S
C410        C414   1.556       .  S
C410        C412   1.542   1_655  S
C410        H416   1.099       .  S
C411        H417   1.073       .  S
C411        C412   1.379       .  D
C412       C2038   1.510       .  S
C413        H418   1.087       .  S
C413        C414   1.362       .  D
C414        C557   1.506   1_655  S
C419        C420   1.549   1_455  S
C419        C425   1.530       .  S
C419        C423   1.531       .  S
C419        C470   1.544       .  S
C420        H427   1.084       .  S
C420        C421   1.373       .  D
C421        C422   1.540   1_655  S
C421       C1014   1.500       .  S
C422        C426   1.542       .  S
C422        C424   1.541       .  S
C422        H428   1.102       .  S
C423        H429   1.084       .  S
C423        C424   1.364       .  D
C424       C1101   1.487       .  S
C425        H430   1.082       .  S
C425        C426   1.364       .  D
C426        C502   1.484   1_455  S
C431        C432   1.544   1_655  S
C431        C437   1.548   1_655  S
C431        C435   1.537       .  S
C431        C630   1.546       .  S
C432        H439   1.084       .  S
C432        C433   1.369       .  D
C433        C434   1.538       .  S
C433       C2006   1.486       .  S
C434        C438   1.529       .  S
C434        C436   1.537   1_455  S
C434        H440   1.111       .  S
C435        H441   1.086       .  S
C435        C436   1.368       .  D
C436       C2230   1.488       .  S
C437        H442   1.084       .  S
C437        C438   1.363       .  D
C438        C493   1.476       .  S
O443        V451   1.908       .  S
O443        C453   1.265       .  A
O444        V451   1.908       .  S
O444        C454   1.268       .  A
O445        V451   1.899       .  S
O445        C455   1.263       .  A
O446        V451   1.895       .  S
O446        C456   1.265       .  A
O447        V452   1.899       .  S
O447        C456   1.263   1_655  A
O448        V452   1.899       .  S
O448        C455   1.265   1_655  A
O449        V452   1.898       .  S
O449        C454   1.262   1_655  A
O450        V452   1.898       .  S
O450        C453   1.263   1_655  A
V451        V452   2.083   1_455  T
C453        C854   1.475       .  S
C454        C461   1.499       .  S
C455        C598   1.484       .  S
C456        C525   1.494       .  S
C457        C458   1.398   1_655  A
C457        C462   1.409       .  A
C457        H467   1.083       .  S
C458        C463   1.488       .  S
C458        C459   1.415       .  A
C459        C464   1.521       .  S
C459        C460   1.408       .  A
C460        C461   1.410       .  A
C460        H465   1.082       .  S
C461        C462   1.428   1_455  A
C462        C466   1.521       .  S
C463        C468   1.413   1_455  A
C463        C472   1.398       .  A
C464        F480   1.382       .  S
C464        F481   1.383       .  S
C464        F482   1.384       .  S
C466        F477   1.384       .  S
C466        F478   1.385       .  S
C466        F479   1.383       .  S
C468        C473   1.520       .  S
C468        C469   1.407   1_655  A
C469        C470   1.413       .  A
C469        H474   1.078   1_455  S
C470        C471   1.433       .  A
C471        C475   1.524       .  S
C471        C472   1.406       .  A
C472        H476   1.085       .  S
C473        F486   1.385       .  S
C473        F487   1.382       .  S
C473        F488   1.382       .  S
C475        F483   1.383       .  S
C475        F484   1.377       .  S
C475        F485   1.385       .  S
C489        C490   1.402       .  A
C489        C494   1.401       .  A
C489        H499   1.085       .  S
C490        C495   1.477       .  S
C490        C491   1.417   1_455  A
C491        C496   1.517       .  S
C491        C492   1.404       .  A
C492        C493   1.402   1_655  A
C492        H497   1.085       .  S
C493        C494   1.417       .  A
C494        C498   1.518       .  S
C495        C500   1.413       .  A
C495        C504   1.398   1_455  A
C496        F512   1.383       .  S
C496        F513   1.382       .  S
C496        F514   1.383       .  S
C498        F509   1.384       .  S
C498        F510   1.383       .  S
C498        F511   1.382       .  S
C500        C505   1.515       .  S
C500        C501   1.408       .  A
C501        C502   1.405   1_455  A
C501        H506   1.083       .  S
C502        C503   1.422       .  A
C503        C507   1.521       .  S
C503        C504   1.398       .  A
C504        H508   1.085       .  S
C505        F518   1.384       .  S
C505        F519   1.382       .  S
C505        F520   1.384       .  S
C507        F515   1.383       .  S
C507        F516   1.382       .  S
C507        F517   1.384       .  S
C521        C522   1.399   1_655  A
C521        C526   1.407       .  A
C521        H531   1.083       .  S
C522        C527   1.482       .  S
C522        C523   1.411       .  A
C523        C528   1.520       .  S
C523        C524   1.404       .  A
C524        C525   1.411       .  A
C524        H529   1.082       .  S
C525        C526   1.427   1_455  A
C526        C530   1.521       .  S
C527        C532   1.409   1_455  A
C527        C536   1.398       .  A
C528        F544   1.382       .  S
C528        F545   1.382       .  S
C528        F546   1.385       .  S
C530        F541   1.385       .  S
C530        F542   1.383       .  S
C530        F543   1.384       .  S
C532        C537   1.523       .  S
C532        C533   1.402       .  A
C533        C534   1.416   1_655  A
C533        H538   1.076       .  S
C534        C535   1.434       .  A
C535        C539   1.523       .  S
C535        C536   1.409       .  A
C536        H540   1.085       .  S
C537        F550   1.385       .  S
C537        F551   1.382       .  S
C537        F552   1.383   1_655  S
C539        F547   1.385       .  S
C539        F548   1.377       .  S
C539        F549   1.383       .  S
C553        C554   1.401   1_655  A
C553        C558   1.410       .  A
C553        H563   1.083       .  S
C554        C559   1.490       .  S
C554        C555   1.416       .  A
C555        C560   1.521       .  S
C555        C556   1.410       .  A
C556        C557   1.411       .  A
C556        H561   1.083       .  S
C557        C558   1.419   1_455  A
C558        C562   1.509       .  S
C559        C564   1.415       .  A
C559        C568   1.397   1_455  A
C560        F576   1.382       .  S
C560        F577   1.380       .  S
C560        F578   1.385       .  S
C562        F573   1.381       .  S
C562        F574   1.385       .  S
C562        F575   1.383       .  S
C564        C569   1.517       .  S
C564        C565   1.415       .  A
C565        C566   1.406       .  A
C565        H570   1.073       .  S
C566        C567   1.432   1_455  A
C567        C571   1.524       .  S
C567        C568   1.402       .  A
C568        H572   1.085       .  S
C569        F582   1.385       .  S
C569        F583   1.382       .  S
C569        F584   1.380       .  S
C571        F579   1.385       .  S
C571        F580   1.379       .  S
C571        F581   1.383       .  S
C585        C586   1.401       .  A
C585        C590   1.407       .  A
C585        H595   1.083       .  S
C586        C591   1.483       .  S
C586        C587   1.415   1_655  A
C587        C592   1.520       .  S
C587        C588   1.407       .  A
C588        C589   1.404   1_455  A
C588        H593   1.083       .  S
C589        C590   1.419       .  A
C590        C594   1.519       .  S
C591        C596   1.414       .  A
C591        C600   1.401   1_655  A
C592        F608   1.382       .  S
C592        F609   1.383       .  S
C592        F610   1.384       .  S
C594        F605   1.383       .  S
C594        F606   1.385       .  S
C594        F607   1.383       .  S
C596        C601   1.520       .  S
C596        C597   1.404       .  A
C597        C598   1.405   1_655  A
C597        H602   1.083       .  S
C598        C599   1.422       .  A
C599        C603   1.520       .  S
C599        C600   1.409       .  A
C600        H604   1.083       .  S
C601        F614   1.384       .  S
C601        F615   1.382       .  S
C601        F616   1.382       .  S
C603        F611   1.385       .  S
C603        F612   1.384       .  S
C603        F613   1.382       .  S
C617        C618   1.396       .  A
C617        C622   1.405       .  A
C617        H627   1.083       .  S
C618        C623   1.481       .  S
C618        C619   1.411   1_655  A
C619        C624   1.519       .  S
C619        C620   1.407       .  A
C620        C621   1.410   1_455  A
C620        H625   1.082       .  S
C621        C622   1.431       .  A
C622        C626   1.523       .  S
C623        C628   1.411       .  A
C623        C632   1.395       .  A
C624        F640   1.383       .  S
C624        F641   1.382       .  S
C624        F642   1.384       .  S
C626        F637   1.385       .  S
C626        F638   1.382       .  S
C626        F639   1.383       .  S
C628        C633   1.521       .  S
C628        C629   1.407       .  A
C629        C630   1.416       .  A
C629        H634   1.078       .  S
C630        C631   1.431       .  A
C631        C635   1.517       .  S
C631        C632   1.405       .  A
C632        H636   1.085   1_655  S
C633        F646   1.384       .  S
C633        F647   1.382       .  S
C633        F648   1.382   1_655  S
C635        F643   1.385       .  S
C635        F644   1.376       .  S
C635        F645   1.382   1_655  S
C649        C650   1.395   1_655  A
C649        C654   1.406       .  A
C649        H659   1.085       .  S
C650        C655   1.481       .  S
C650        C651   1.409       .  A
C651        C656   1.521       .  S
C651        C652   1.406       .  A
C652        C653   1.416       .  A
C652        H657   1.075       .  S
C653        C654   1.437   1_455  A
C654        C658   1.527       .  S
C655        C660   1.414       .  A
C655        C664   1.402   1_455  A
C656        F672   1.382       .  S
C656        F673   1.382       .  S
C656        F674   1.384       .  S
C658        F669   1.383       .  S
C658        F670   1.385       .  S
C658        F671   1.376       .  S
C660        C665   1.520       .  S
C660        C661   1.405       .  A
C661        C662   1.404       .  A
C661        H666   1.081       .  S
C662        C663   1.418   1_455  A
C663        C667   1.517       .  S
C663        C664   1.407       .  A
C664        H668   1.083       .  S
C665        F678   1.385       .  S
C665        F679   1.383       .  S
C665        F680   1.381       .  S
C667        F675   1.382       .  S
C667        F676   1.383       .  S
C667        F677   1.385       .  S
C681        C682   1.403   1_655  A
C681        C686   1.411       .  A
C681        H691   1.083       .  S
C682        C687   1.490       .  S
C682        C683   1.415       .  A
C683        C688   1.520       .  S
C683        C684   1.405       .  A
C684        C685   1.405       .  A
C684        H689   1.082       .  S
C685        C686   1.418   1_455  A
C686        C690   1.514       .  S
C687        C692   1.414   1_455  A
C687        C696   1.401       .  A
C688        F704   1.382       .  S
C688        F705   1.383       .  S
C688        F706   1.385       .  S
C690        F701   1.384       .  S
C690        F702   1.381       .  S
C690        F703   1.381       .  S
C692        C697   1.522       .  S
C692        C693   1.404       .  A
C693        C694   1.410   1_655  A
C693        H698   1.082       .  S
C694        C695   1.427       .  A
C695        C699   1.517       .  S
C695        C696   1.415       .  A
C696        H700   1.083       .  S
C697        F710   1.385       .  S
C697        F711   1.382       .  S
C697        F712   1.383       .  S
C699        F707   1.380       .  S
C699        F708   1.378       .  S
C699        F709   1.385       .  S
C713        C714   1.401       .  A
C713        C718   1.408       .  A
C713        H723   1.083       .  S
C714        C719   1.482       .  S
C714        C715   1.413   1_655  A
C715        C720   1.520       .  S
C715        C716   1.406       .  A
C716        C717   1.407   1_455  A
C716        H721   1.083       .  S
C717        C718   1.423       .  A
C718        C722   1.520       .  S
C719        C724   1.414       .  A
C719        C728   1.402   1_655  A
C720        F736   1.382       .  S
C720        F737   1.382       .  S
C720        F738   1.384       .  S
C722        F733   1.382       .  S
C722        F734   1.385       .  S
C722        F735   1.383       .  S
C724        C729   1.519       .  S
C724        C725   1.405       .  A
C725        C726   1.404   1_655  A
C725        H730   1.083       .  S
C726        C727   1.418       .  A
C727        C731   1.515       .  S
C727        C728   1.407       .  A
C728        H732   1.083       .  S
C729        F742   1.385       .  S
C729        F743   1.382       .  S
C729        F744   1.382       .  S
C731        F739   1.381       .  S
C731        F740   1.382       .  S
C731        F741   1.385       .  S
C745        C746   1.401   1_455  A
C745        C750   1.408       .  A
C745        H755   1.083       .  S
C746        C751   1.488       .  S
C746        C747   1.416       .  A
C747        C752   1.520       .  S
C747        C748   1.409       .  A
C748        C749   1.406       .  A
C748        H753   1.083       .  S
C749        C750   1.421   1_655  A
C750        C754   1.519       .  S
C751        C756   1.412   1_655  A
C751        C760   1.396       .  A
C752        F768   1.382       .  S
C752        F769   1.382       .  S
C752        F770   1.385       .  S
C754        F765   1.382       .  S
C754        F766   1.385       .  S
C754        F767   1.383       .  S
C756        C761   1.521       .  S
C756        C757   1.408       .  A
C757        C758   1.414   1_455  A
C757        H762   1.076       .  S
C758        C759   1.437       .  A
C759        C763   1.526       .  S
C759        C760   1.407       .  A
C760        H764   1.085       .  S
C761        F774   1.385       .  S
C761        F775   1.382       .  S
C761        F776   1.382       .  S
C763        F771   1.383       .  S
C763        F772   1.376       .  S
C763        F773   1.385       .  S
C777        C778   1.392       .  A
C777        C782   1.405       .  A
C777        H787   1.085       .  S
C778        C783   1.482       .  S
C778        C779   1.408   1_655  A
C779        C784   1.522       .  S
C779        C780   1.407       .  A
C780        C781   1.418   1_455  A
C780        H785   1.070       .  S
C781        C782   1.442       .  A
C782        C786   1.529       .  S
C783        C788   1.416       .  A
C783        C792   1.404       .  A
C784        F800   1.382       .  S
C784        F801   1.383       .  S
C784        F802   1.384       .  S
C786        F797   1.384       .  S
C786        F798   1.384       .  S
C786        F799   1.372       .  S
C788        C793   1.520   1_655  S
C788        C789   1.404       .  A
C789        C790   1.402       .  A
C789        H794   1.084   1_655  S
C790        C791   1.415       .  A
C791        C795   1.518       .  S
C791        C792   1.408       .  A
C792        H796   1.083       .  S
C793        F806   1.385       .  S
C793        F807   1.382   1_455  S
C793        F808   1.382       .  S
C795        F803   1.382       .  S
C795        F804   1.383       .  S
C795        F805   1.385       .  S
C809        C810   1.403   1_455  A
C809        C814   1.414       .  A
C809        H819   1.083       .  S
C810        C815   1.488       .  S
C810        C811   1.413       .  A
C811        C816   1.523       .  S
C811        C812   1.401       .  A
C812        C813   1.409       .  A
C812        H817   1.080       .  S
C813        C814   1.425   1_655  A
C814        C818   1.518       .  S
C815        C820   1.417   1_655  A
C815        C824   1.405       .  A
C816        F832   1.381       .  S
C816        F833   1.383       .  S
C816        F834   1.385       .  S
C818        F829   1.385       .  S
C818        F830   1.380       .  S
C818        F831   1.379       .  S
C820        C825   1.520       .  S
C820        C821   1.406       .  A
C821        C822   1.403   1_455  A
C821        H826   1.083       .  S
C822        C823   1.414       .  A
C823        C827   1.516       .  S
C823        C824   1.409       .  A
C824        H828   1.083       .  S
C825        F838   1.385       .  S
C825        F839   1.382       .  S
C825        F840   1.383       .  S
C827        F835   1.381       .  S
C827        F836   1.383       .  S
C827        F837   1.384       .  S
C841        C842   1.401       .  A
C841        C846   1.412       .  A
C841        H851   1.083       .  S
C842        C847   1.490       .  S
C842        C843   1.414   1_655  A
C843        C848   1.519       .  S
C843        C844   1.407       .  A
C844        C845   1.409   1_455  A
C844        H849   1.082       .  S
C845        C846   1.428       .  A
C846        C850   1.521       .  S
C847        C852   1.418   1_655  A
C847        C856   1.404       .  A
C848        F864   1.382       .  S
C848        F865   1.382       .  S
C848        F866   1.384       .  S
C850        F861   1.385       .  S
C850        F862   1.383       .  S
C850        F863   1.384       .  S
C852        C857   1.519       .  S
C852        C853   1.409       .  A
C853        C854   1.402       .  A
C853        H858   1.084       .  S
C854        C855   1.413   1_455  A
C855        C859   1.517       .  S
C855        C856   1.408       .  A
C856        H860   1.083       .  S
C857        F870   1.385       .  S
C857        F871   1.382   1_455  S
C857        F872   1.382       .  S
C859        F867   1.385       .  S
C859        F868   1.382       .  S
C859        F869   1.383   1_655  S
C873        C874   1.402   1_455  A
C873        C878   1.411       .  A
C873        H883   1.083       .  S
C874        C879   1.494       .  S
C874        C875   1.417       .  A
C875        C880   1.519       .  S
C875        C876   1.412       .  A
C876        C877   1.407       .  A
C876        H881   1.083       .  S
C877        C878   1.424   1_655  A
C878        C882   1.520       .  S
C879        C884   1.418   1_655  A
C879        C888   1.403       .  A
C880        F896   1.382       .  S
C880        F897   1.382       .  S
C880        F898   1.384       .  S
C882        F893   1.383       .  S
C882        F894   1.385       .  S
C882        F895   1.384       .  S
C884        C889   1.519       .  S
C884        C885   1.411       .  A
C885        C886   1.406   1_455  A
C885        H890   1.083       .  S
C886        C887   1.419       .  A
C887        C891   1.519       .  S
C887        C888   1.410       .  A
C888        H892   1.083       .  S
C889        F902   1.385       .  S
C889        F903   1.382       .  S
C889        F904   1.382       .  S
C891        F899   1.384       .  S
C891        F900   1.384       .  S
C891        F901   1.382       .  S
C905        C906   1.403       .  A
C905        C910   1.409       .  A
C905        H915   1.083   1_655  S
C906        C911   1.489       .  S
C906        C907   1.417       .  A
C907        C912   1.519       .  S
C907        C908   1.408       .  A
C908        C909   1.403       .  A
C908        H913   1.083       .  S
C909        C910   1.417       .  A
C910        C914   1.518   1_655  S
C911        C916   1.411       .  A
C911        C920   1.393       .  A
C912        F928   1.382       .  S
C912        F929   1.382       .  S
C912        F930   1.385       .  S
C914        F925   1.385       .  S
C914        F926   1.382       .  S
C914        F927   1.382   1_455  S
C916        C921   1.520       .  S
C916        C917   1.412       .  A
C917        C918   1.417       .  A
C917        H922   1.074       .  S
C918        C919   1.442   1_655  A
C919        C923   1.530       .  S
C919        C920   1.405   1_455  A
C920        H924   1.086   1_655  S
C921        F934   1.384       .  S
C921        F935   1.382       .  S
C921        F936   1.382       .  S
C923        F931   1.385       .  S
C923        F932   1.374       .  S
C923        F933   1.384       .  S
C937        C938   1.402       .  A
C937        C942   1.409       .  A
C937        H947   1.083   1_655  S
C938        C943   1.490       .  S
C938        C939   1.417       .  A
C939        C944   1.519       .  S
C939        C940   1.410       .  A
C940        C941   1.404       .  A
C940        H945   1.083       .  S
C941        C942   1.419       .  A
C942        C946   1.519   1_655  S
C943        C948   1.409       .  A
C943        C952   1.399   1_655  A
C944        F960   1.382       .  S
C944        F961   1.382       .  S
C944        F962   1.384       .  S
C946        F957   1.385       .  S
C946        F958   1.382       .  S
C946        F959   1.384   1_455  S
C948        C953   1.520       .  S
C948        C949   1.405       .  A
C949        C950   1.417       .  A
C949        H954   1.082       .  S
C950        C951   1.435   1_655  A
C951        C955   1.519       .  S
C951        C952   1.413       .  A
C952        H956   1.084       .  S
C953        F966   1.385       .  S
C953        F967   1.382       .  S
C953        F968   1.382       .  S
C955        F963   1.386       .  S
C955        F964   1.383       .  S
C955        F965   1.381       .  S
C969        C970   1.403       .  A
C969        C974   1.412       .  A
C969        H979   1.083       .  S
C970        C975   1.489       .  S
C970        C971   1.415       .  A
C971        C976   1.521       .  S
C971        C972   1.403       .  A
C972        C973   1.407       .  A
C972        H977   1.082       .  S
C973        C974   1.421       .  A
C974        C978   1.518       .  S
C975        C980   1.414       .  A
C975        C984   1.403       .  A
C976        F992   1.381       .  S
C976        F993   1.383       .  S
C976        F994   1.385       .  S
C978        F989   1.385       .  S
C978        F990   1.380       .  S
C978        F991   1.382       .  S
C980        C985   1.520       .  S
C980        C981   1.405       .  A
C981        C982   1.407       .  A
C981        H986   1.081       .  S
C982        C983   1.419       .  A
C983        C987   1.516       .  S
C983        C984   1.411       .  A
C984        H988   1.083       .  S
C985        F998   1.385       .  S
C985        F999   1.382       .  S
C985       F1000   1.383       .  S
C987        F995   1.380   1_655  S
C987        F996   1.381   1_655  S
C987        F997   1.385       .  S
C1001      C1002   1.399       .  A
C1001      C1006   1.405       .  A
C1001      H1011   1.083       .  S
C1002      C1007   1.484       .  S
C1002      C1003   1.416       .  A
C1003      C1008   1.519       .  S
C1003      C1004   1.406       .  A
C1004      C1005   1.404       .  A
C1004      H1009   1.082       .  S
C1005      C1006   1.419       .  A
C1006      C1010   1.514   1_545  S
C1007      C1012   1.413       .  A
C1007      C1016   1.400       .  A
C1008      F1024   1.382       .  S
C1008      F1025   1.383       .  S
C1008      F1026   1.385       .  S
C1010      F1021   1.385       .  S
C1010      F1022   1.378       .  S
C1010      F1023   1.382       .  S
C1012      C1017   1.521       .  S
C1012      C1013   1.402       .  A
C1013      C1014   1.408       .  A
C1013      H1018   1.083       .  S
C1014      C1015   1.427       .  A
C1015      C1019   1.518       .  S
C1015      C1016   1.410       .  A
C1016      H1020   1.083       .  S
C1017      F1030   1.385       .  S
C1017      F1031   1.382       .  S
C1017      F1032   1.383       .  S
C1019      F1027   1.385       .  S
C1019      F1028   1.381       .  S
C1019      F1029   1.378       .  S
C1033      C1034   1.399       .  A
C1033      C1038   1.405       .  A
C1033      H1043   1.083   1_565  S
C1034      C1039   1.480       .  S
C1034      C1035   1.413       .  A
C1035      C1040   1.520       .  S
C1035      C1036   1.407       .  A
C1036      C1037   1.408       .  A
C1036      H1041   1.083       .  S
C1037      C1038   1.422       .  A
C1038      C1042   1.519   1_565  S
C1039      C1044   1.410       .  A
C1039      C1048   1.396       .  A
C1040      F1056   1.382       .  S
C1040      F1057   1.382       .  S
C1040      F1058   1.384       .  S
C1042      F1053   1.385       .  S
C1042      F1054   1.382       .  S
C1042      F1055   1.383       .  S
C1044      C1049   1.521       .  S
C1044      C1045   1.406       .  A
C1045      C1046   1.415       .  A
C1045      H1050   1.079       .  S
C1046      C1047   1.434       .  A
C1047      C1051   1.524   1_565  S
C1047      C1048   1.405       .  A
C1048      H1052   1.085       .  S
C1049      F1062   1.384       .  S
C1049      F1063   1.382       .  S
C1049      F1064   1.381       .  S
C1051      F1059   1.385       .  S
C1051      F1060   1.378       .  S
C1051      F1061   1.383   1_545  S
C1065      C1066   1.404       .  A
C1065      C1070   1.413       .  A
C1065      H1075   1.083       .  S
C1066      C1071   1.490       .  S
C1066      C1067   1.415   1_565  A
C1067      C1072   1.522       .  S
C1067      C1068   1.403       .  A
C1068      C1069   1.408   1_545  A
C1068      H1073   1.080       .  S
C1069      C1070   1.416       .  A
C1070      C1074   1.510       .  S
C1071      C1076   1.417       .  A
C1071      C1080   1.404   1_565  A
C1072      F1088   1.381       .  S
C1072      F1089   1.383       .  S
C1072      F1090   1.385       .  S
C1074      F1085   1.384       .  S
C1074      F1086   1.381       .  S
C1074      F1087   1.383       .  S
C1076      C1081   1.521       .  S
C1076      C1077   1.405       .  A
C1077      C1078   1.404       .  A
C1077      H1082   1.083       .  S
C1078      C1079   1.418   1_565  A
C1079      C1083   1.515       .  S
C1079      C1080   1.412       .  A
C1080      H1084   1.083       .  S
C1081      F1094   1.385       .  S
C1081      F1095   1.382       .  S
C1081      F1096   1.383       .  S
C1083      F1091   1.385       .  S
C1083      F1092   1.380       .  S
C1083      F1093   1.381       .  S
C1097      C1098   1.402       .  A
C1097      C1102   1.407       .  A
C1097      H1107   1.083       .  S
C1098      C1103   1.486       .  S
C1098      C1099   1.417       .  A
C1099      C1104   1.520       .  S
C1099      C1100   1.407       .  A
C1100      C1101   1.403       .  A
C1100      H1105   1.083       .  S
C1101      C1102   1.419       .  A
C1102      C1106   1.519       .  S
C1103      C1108   1.414       .  A
C1103      C1112   1.396       .  A
C1104      F1120   1.382       .  S
C1104      F1121   1.382       .  S
C1104      F1122   1.385       .  S
C1106      F1117   1.385       .  S
C1106      F1118   1.380       .  S
C1106      F1119   1.384       .  S
C1108      C1113   1.518       .  S
C1108      C1109   1.412       .  A
C1109      C1110   1.409       .  A
C1109      H1114   1.082       .  S
C1110      C1111   1.430       .  A
C1111      C1115   1.526       .  S
C1111      C1112   1.401       .  A
C1112      H1116   1.085       .  S
C1113      F1126   1.384       .  S
C1113      F1127   1.382       .  S
C1113      F1128   1.382       .  S
C1115      F1123   1.383       .  S
C1115      F1124   1.379   1_545  S
C1115      F1125   1.385       .  S
C1129      C1130   1.401       .  A
C1129      C1134   1.411       .  A
C1129      H1139   1.083       .  S
C1130      C1135   1.487       .  S
C1130      C1131   1.416       .  A
C1131      C1136   1.521       .  S
C1131      C1132   1.405       .  A
C1132      C1133   1.406       .  A
C1132      H1137   1.083       .  S
C1133      C1134   1.421       .  A
C1134      C1138   1.515       .  S
C1135      C1140   1.413       .  A
C1135      C1144   1.397       .  A
C1136      F1152   1.381       .  S
C1136      F1153   1.382       .  S
C1136      F1154   1.385       .  S
C1138      F1149   1.385       .  S
C1138      F1150   1.378       .  S
C1138      F1151   1.381       .  S
C1140      C1145   1.519       .  S
C1140      C1141   1.410       .  A
C1141      C1142   1.410       .  A
C1141      H1146   1.083       .  S
C1142      C1143   1.426       .  A
C1143      C1147   1.517       .  S
C1143      C1144   1.406       .  A
C1144      H1148   1.083       .  S
C1145      F1158   1.385       .  S
C1145      F1159   1.382       .  S
C1145      F1160   1.382       .  S
C1147      F1155   1.378       .  S
C1147      F1156   1.374       .  S
C1147      F1157   1.385       .  S
C1161      C1162   1.395       .  A
C1161      C1166   1.411       .  A
C1161      H1171   1.085       .  S
C1162      C1167   1.493       .  S
C1162      C1163   1.410       .  A
C1163      C1168   1.521       .  S
C1163      C1164   1.410       .  A
C1164      C1165   1.420       .  A
C1164      H1169   1.074       .  S
C1165      C1166   1.438       .  A
C1166      C1170   1.519       .  S
C1167      C1172   1.413       .  A
C1167      C1176   1.400   1_565  A
C1168      F1184   1.382   1_565  S
C1168      F1185   1.383       .  S
C1168      F1186   1.384       .  S
C1170      F1181   1.383       .  S
C1170      F1182   1.385   1_565  S
C1170      F1183   1.371       .  S
C1172      C1177   1.519       .  S
C1172      C1173   1.408       .  A
C1173      C1174   1.411       .  A
C1173      H1178   1.082       .  S
C1174      C1175   1.430   1_565  A
C1175      C1179   1.522       .  S
C1175      C1176   1.412       .  A
C1176      H1180   1.083       .  S
C1177      F1190   1.384       .  S
C1177      F1191   1.382       .  S
C1177      F1192   1.382       .  S
C1179      F1187   1.383       .  S
C1179      F1188   1.383       .  S
C1179      F1189   1.385       .  S
C1193      C1194   1.402       .  A
C1193      C1198   1.408       .  A
C1193      H1203   1.085       .  S
C1194      C1199   1.491       .  S
C1194      C1195   1.416       .  A
C1195      C1200   1.519       .  S
C1195      C1196   1.409       .  A
C1196      C1197   1.400       .  A
C1196      H1201   1.065       .  S
C1197      C1198   1.425       .  A
C1198      C1202   1.518       .  S
C1199      C1204   1.421       .  A
C1199      C1208   1.401       .  A
C1200      F1216   1.381   1_565  S
C1200      F1217   1.383       .  S
C1200      F1218   1.385   1_565  S
C1202      F1213   1.384       .  S
C1202      F1214   1.383       .  S
C1202      F1215   1.382       .  S
C1204      C1209   1.517       .  S
C1204      C1205   1.412       .  A
C1205      C1206   1.404       .  A
C1205      H1210   1.085       .  S
C1206      C1207   1.417   1_565  A
C1207      C1211   1.514       .  S
C1207      C1208   1.401   1_545  A
C1208      H1212   1.084   1_565  S
C1209      F1222   1.384       .  S
C1209      F1223   1.383       .  S
C1209      F1224   1.382       .  S
C1211      F1219   1.381       .  S
C1211      F1220   1.381       .  S
C1211      F1221   1.384       .  S
C1225      C1226   1.401       .  A
C1225      C1230   1.406       .  A
C1225      H1235   1.083       .  S
C1226      C1231   1.482       .  S
C1226      C1227   1.415       .  A
C1227      C1232   1.520   1_565  S
C1227      C1228   1.407       .  A
C1228      C1229   1.404       .  A
C1228      H1233   1.083   1_565  S
C1229      C1230   1.418       .  A
C1230      C1234   1.518       .  S
C1231      C1236   1.415       .  A
C1231      C1240   1.399       .  A
C1232      F1248   1.382   1_545  S
C1232      F1249   1.382       .  S
C1232      F1250   1.385       .  S
C1234      F1245   1.385       .  S
C1234      F1246   1.382       .  S
C1234      F1247   1.381       .  S
C1236      C1241   1.519   1_565  S
C1236      C1237   1.407       .  A
C1237      C1238   1.405       .  A
C1237      H1242   1.083   1_565  S
C1238      C1239   1.422       .  A
C1239      C1243   1.521       .  S
C1239      C1240   1.406       .  A
C1240      H1244   1.083       .  S
C1241      F1254   1.384       .  S
C1241      F1255   1.382   1_545  S
C1241      F1256   1.382       .  S
C1243      F1251   1.383       .  S
C1243      F1252   1.383       .  S
C1243      F1253   1.385       .  S
C1257      C1258   1.400       .  A
C1257      C1262   1.406       .  A
C1257      H1267   1.083   1_565  S
C1258      C1263   1.480       .  S
C1258      C1259   1.413       .  A
C1259      C1264   1.520       .  S
C1259      C1260   1.406       .  A
C1260      C1261   1.407       .  A
C1260      H1265   1.083       .  S
C1261      C1262   1.421       .  A
C1262      C1266   1.519   1_565  S
C1263      C1268   1.410       .  A
C1263      C1272   1.394       .  A
C1264      F1280   1.382       .  S
C1264      F1281   1.382       .  S
C1264      F1282   1.385       .  S
C1266      F1277   1.385       .  S
C1266      F1278   1.382       .  S
C1266      F1279   1.382       .  S
C1268      C1273   1.520       .  S
C1268      C1269   1.407       .  A
C1269      C1270   1.416       .  A
C1269      H1274   1.077       .  S
C1270      C1271   1.434       .  A
C1271      C1275   1.520   1_565  S
C1271      C1272   1.403       .  A
C1272      H1276   1.085   1_565  S
C1273      F1286   1.385       .  S
C1273      F1287   1.382       .  S
C1273      F1288   1.382       .  S
C1275      F1283   1.385       .  S
C1275      F1284   1.374       .  S
C1275      F1285   1.382       .  S
C1289      C1290   1.402       .  A
C1289      C1294   1.413       .  A
C1289      H1299   1.083       .  S
C1290      C1295   1.489       .  S
C1290      C1291   1.414       .  A
C1291      C1296   1.522       .  S
C1291      C1292   1.405       .  A
C1292      C1293   1.410       .  A
C1292      H1297   1.080       .  S
C1293      C1294   1.421       .  A
C1294      C1298   1.511       .  S
C1295      C1300   1.413       .  A
C1295      C1304   1.399       .  A
C1296      F1312   1.382       .  S
C1296      F1313   1.382       .  S
C1296      F1314   1.385       .  S
C1298      F1309   1.385       .  S
C1298      F1310   1.380       .  S
C1298      F1311   1.383       .  S
C1300      C1305   1.519       .  S
C1300      C1301   1.408       .  A
C1301      C1302   1.409       .  A
C1301      H1306   1.082       .  S
C1302      C1303   1.428       .  A
C1303      C1307   1.519   1_545  S
C1303      C1304   1.410       .  A
C1304      H1308   1.083       .  S
C1305      F1318   1.385       .  S
C1305      F1319   1.382       .  S
C1305      F1320   1.382       .  S
C1307      F1315   1.378       .  S
C1307      F1316   1.375       .  S
C1307      F1317   1.385       .  S
C1321      C1322   1.400       .  A
C1321      C1326   1.405       .  A
C1321      H1331   1.085       .  S
C1322      C1327   1.486       .  S
C1322      C1323   1.417       .  A
C1323      C1328   1.520       .  S
C1323      C1324   1.410       .  A
C1324      C1325   1.406       .  A
C1324      H1329   1.083       .  S
C1325      C1326   1.423       .  A
C1326      C1330   1.520       .  S
C1327      C1332   1.415       .  A
C1327      C1336   1.397       .  A
C1328      F1344   1.382       .  S
C1328      F1345   1.381       .  S
C1328      F1346   1.385       .  S
C1330      F1341   1.384       .  S
C1330      F1342   1.383       .  S
C1330      F1343   1.381       .  S
C1332      C1337   1.518       .  S
C1332      C1333   1.410       .  A
C1333      C1334   1.406       .  A
C1333      H1338   1.080       .  S
C1334      C1335   1.431       .  A
C1335      C1339   1.525       .  S
C1335      C1336   1.404       .  A
C1336      H1340   1.085       .  S
C1337      F1350   1.385       .  S
C1337      F1351   1.382       .  S
C1337      F1352   1.381       .  S
C1339      F1347   1.383       .  S
C1339      F1348   1.379       .  S
C1339      F1349   1.385       .  S
C1353      C1354   1.394       .  A
C1353      C1358   1.405       .  A
C1353      H1363   1.086       .  S
C1354      C1359   1.485       .  S
C1354      C1355   1.409       .  A
C1355      C1360   1.521   1_565  S
C1355      C1356   1.409       .  A
C1356      C1357   1.417       .  A
C1356      H1361   1.074   1_565  S
C1357      C1358   1.439       .  A
C1358      C1362   1.527       .  S
C1359      C1364   1.415       .  A
C1359      C1368   1.402       .  A
C1360      F1376   1.382   1_545  S
C1360      F1377   1.382       .  S
C1360      F1378   1.385       .  S
C1362      F1373   1.384       .  S
C1362      F1374   1.384       .  S
C1362      F1375   1.375       .  S
C1364      C1369   1.520   1_565  S
C1364      C1365   1.406       .  A
C1365      C1366   1.405       .  A
C1365      H1370   1.083   1_565  S
C1366      C1367   1.422       .  A
C1367      C1371   1.519       .  S
C1367      C1368   1.410       .  A
C1368      H1372   1.083       .  S
C1369      F1382   1.385       .  S
C1369      F1383   1.382   1_545  S
C1369      F1384   1.381       .  S
C1371      F1379   1.382       .  S
C1371      F1380   1.382       .  S
C1371      F1381   1.385       .  S
C1385      C1386   1.398       .  A
C1385      C1390   1.400       .  A
C1385      H1395   1.085   1_565  S
C1386      C1391   1.486       .  S
C1386      C1387   1.416       .  A
C1387      C1392   1.519       .  S
C1387      C1388   1.414       .  A
C1388      C1389   1.407       .  A
C1388      H1393   1.080       .  S
C1389      C1390   1.423       .  A
C1390      C1394   1.518   1_565  S
C1391      C1396   1.415       .  A
C1391      C1400   1.403       .  A
C1392      F1408   1.382       .  S
C1392      F1409   1.381       .  S
C1392      F1410   1.385       .  S
C1394      F1405   1.383       .  S
C1394      F1406   1.384       .  S
C1394      F1407   1.380       .  S
C1396      C1401   1.524       .  S
C1396      C1397   1.405       .  A
C1397      C1398   1.408       .  A
C1397      H1402   1.083       .  S
C1398      C1399   1.423       .  A
C1399      C1403   1.518   1_565  S
C1399      C1400   1.414       .  A
C1400      H1404   1.083   1_565  S
C1401      F1414   1.384       .  S
C1401      F1415   1.383       .  S
C1401      F1416   1.380       .  S
C1403      F1411   1.385       .  S
C1403      F1412   1.380       .  S
C1403      F1413   1.380       .  S
C1417      C1418   1.402       .  A
C1417      C1422   1.410       .  A
C1417      H1427   1.083       .  S
C1418      C1423   1.489       .  S
C1418      C1419   1.415       .  A
C1419      C1424   1.519   1_565  S
C1419      C1420   1.408       .  A
C1420      C1421   1.405       .  A
C1420      H1425   1.083       .  S
C1421      C1422   1.422       .  A
C1422      C1426   1.520       .  S
C1423      C1428   1.415       .  A
C1423      C1432   1.403       .  A
C1424      F1440   1.382   1_545  S
C1424      F1441   1.382       .  S
C1424      F1442   1.385       .  S
C1426      F1437   1.385       .  S
C1426      F1438   1.382       .  S
C1426      F1439   1.384       .  S
C1428      C1433   1.520   1_565  S
C1428      C1429   1.408       .  A
C1429      C1430   1.405       .  A
C1429      H1434   1.083   1_565  S
C1430      C1431   1.420       .  A
C1431      C1435   1.518       .  S
C1431      C1432   1.411       .  A
C1432      H1436   1.083       .  S
C1433      F1446   1.384       .  S
C1433      F1447   1.382   1_545  S
C1433      F1448   1.382       .  S
C1435      F1443   1.382       .  S
C1435      F1444   1.384       .  S
C1435      F1445   1.385       .  S
C1449      C1450   1.400   1_545  A
C1449      C1454   1.409       .  A
C1449      H1459   1.083       .  S
C1450      C1455   1.487       .  S
C1450      C1451   1.414       .  A
C1451      C1456   1.520       .  S
C1451      C1452   1.407       .  A
C1452      C1453   1.408       .  A
C1452      H1457   1.083       .  S
C1453      C1454   1.425   1_565  A
C1454      C1458   1.520       .  S
C1455      C1460   1.412       .  A
C1455      C1464   1.399       .  A
C1456      F1472   1.382       .  S
C1456      F1473   1.383       .  S
C1456      F1474   1.384       .  S
C1458      F1469   1.385       .  S
C1458      F1470   1.383       .  S
C1458      F1471   1.383       .  S
C1460      C1465   1.521       .  S
C1460      C1461   1.404       .  A
C1461      C1462   1.413       .  A
C1461      H1466   1.079       .  S
C1462      C1463   1.433       .  A
C1463      C1467   1.523       .  S
C1463      C1464   1.410       .  A
C1464      H1468   1.084       .  S
C1465      F1478   1.385       .  S
C1465      F1479   1.382       .  S
C1465      F1480   1.382       .  S
C1467      F1475   1.383   1_565  S
C1467      F1476   1.380       .  S
C1467      F1477   1.385       .  S
C1481      C1482   1.397       .  A
C1481      C1486   1.411       .  A
C1481      H1491   1.083       .  S
C1482      C1487   1.490       .  S
C1482      C1483   1.411       .  A
C1483      C1488   1.519       .  S
C1483      C1484   1.409       .  A
C1484      C1485   1.414       .  A
C1484      H1489   1.082       .  S
C1485      C1486   1.432       .  A
C1486      C1490   1.519       .  S
C1487      C1492   1.417       .  A
C1487      C1496   1.405       .  A
C1488      F1504   1.382       .  S
C1488      F1505   1.383       .  S
C1488      F1506   1.384       .  S
C1490      F1501   1.385       .  S
C1490      F1502   1.380       .  S
C1490      F1503   1.374       .  S
C1492      C1497   1.521       .  S
C1492      C1493   1.404       .  A
C1493      C1494   1.402       .  A
C1493      H1498   1.083       .  S
C1494      C1495   1.416       .  A
C1495      C1499   1.518       .  S
C1495      C1496   1.413       .  A
C1496      H1500   1.083       .  S
C1497      F1510   1.384       .  S
C1497      F1511   1.382       .  S
C1497      F1512   1.383       .  S
C1499      F1507   1.380       .  S
C1499      F1508   1.383       .  S
C1499      F1509   1.384       .  S
C1513      C1514   1.401       .  A
C1513      C1518   1.409       .  A
C1513      H1523   1.083       .  S
C1514      C1519   1.485       .  S
C1514      C1515   1.415   1_565  A
C1515      C1520   1.521       .  S
C1515      C1516   1.407   1_545  A
C1516      C1517   1.406       .  A
C1516      H1521   1.083   1_565  S
C1517      C1518   1.422       .  A
C1518      C1522   1.519       .  S
C1519      C1524   1.410       .  A
C1519      C1528   1.397       .  A
C1520      F1536   1.382       .  S
C1520      F1537   1.382       .  S
C1520      F1538   1.384       .  S
C1522      F1533   1.385       .  S
C1522      F1534   1.383       .  S
C1522      F1535   1.384       .  S
C1524      C1529   1.521   1_565  S
C1524      C1525   1.406   1_565  A
C1525      C1526   1.418   1_545  A
C1525      H1530   1.079       .  S
C1526      C1527   1.432       .  A
C1527      C1531   1.516       .  S
C1527      C1528   1.407       .  A
C1528      H1532   1.085       .  S
C1529      F1542   1.385       .  S
C1529      F1543   1.382   1_545  S
C1529      F1544   1.381       .  S
C1531      F1539   1.383       .  S
C1531      F1540   1.370       .  S
C1531      F1541   1.385       .  S
C1545      C1546   1.397       .  A
C1545      C1550   1.405       .  A
C1545      H1555   1.084       .  S
C1546      C1551   1.492       .  S
C1546      C1547   1.416       .  A
C1547      C1552   1.518       .  S
C1547      C1548   1.413       .  A
C1548      C1549   1.404       .  A
C1548      H1553   1.070       .  S
C1549      C1550   1.430       .  A
C1550      C1554   1.519       .  S
C1551      C1556   1.420       .  A
C1551      C1560   1.403       .  A
C1552      F1568   1.381       .  S
C1552      F1569   1.382       .  S
C1552      F1570   1.385       .  S
C1554      F1565   1.386       .  S
C1554      F1566   1.381       .  S
C1554      F1567   1.379   1_545  S
C1556      C1561   1.521       .  S
C1556      C1557   1.410       .  A
C1557      C1558   1.403       .  A
C1557      H1562   1.082       .  S
C1558      C1559   1.416       .  A
C1559      C1563   1.515       .  S
C1559      C1560   1.409       .  A
C1560      H1564   1.083       .  S
C1561      F1574   1.385   1_655  S
C1561      F1575   1.381       .  S
C1561      F1576   1.382       .  S
C1563      F1571   1.381       .  S
C1563      F1572   1.383       .  S
C1563      F1573   1.385       .  S
C1577      C1578   1.402       .  A
C1577      C1582   1.410       .  A
C1577      H1587   1.083   1_565  S
C1578      C1583   1.489       .  S
C1578      C1579   1.415       .  A
C1579      C1584   1.520       .  S
C1579      C1580   1.409       .  A
C1580      C1581   1.410       .  A
C1580      H1585   1.083       .  S
C1581      C1582   1.417       .  A
C1582      C1586   1.508   1_565  S
C1583      C1588   1.414       .  A
C1583      C1592   1.400       .  A
C1584      F1600   1.382       .  S
C1584      F1601   1.380       .  S
C1584      F1602   1.385       .  S
C1586      F1597   1.381       .  S
C1586      F1598   1.385       .  S
C1586      F1599   1.383       .  S
C1588      C1593   1.518       .  S
C1588      C1589   1.412       .  A
C1589      C1590   1.410       .  A
C1589      H1594   1.080       .  S
C1590      C1591   1.426       .  A
C1591      C1595   1.520   1_565  S
C1591      C1592   1.405       .  A
C1592      H1596   1.085       .  S
C1593      F1606   1.385       .  S
C1593      F1607   1.382       .  S
C1593      F1608   1.380       .  S
C1595      F1603   1.385       .  S
C1595      F1604   1.378       .  S
C1595      F1605   1.383       .  S
C1609      C1610   1.402       .  A
C1609      C1614   1.411       .  A
C1609      H1619   1.083       .  S
C1610      C1615   1.491       .  S
C1610      C1611   1.416       .  A
C1611      C1616   1.519       .  S
C1611      C1612   1.409       .  A
C1612      C1613   1.405       .  A
C1612      H1617   1.083       .  S
C1613      C1614   1.422       .  A
C1614      C1618   1.519       .  S
C1615      C1620   1.416       .  A
C1615      C1624   1.403       .  A
C1616      F1632   1.382       .  S
C1616      F1633   1.382   1_565  S
C1616      F1634   1.385   1_565  S
C1618      F1629   1.385       .  S
C1618      F1630   1.382       .  S
C1618      F1631   1.384       .  S
C1620      C1625   1.519       .  S
C1620      C1621   1.409       .  A
C1621      C1622   1.405       .  A
C1621      H1626   1.083       .  S
C1622      C1623   1.419       .  A
C1623      C1627   1.518       .  S
C1623      C1624   1.410       .  A
C1624      H1628   1.083       .  S
C1625      F1638   1.385   1_565  S
C1625      F1639   1.382       .  S
C1625      F1640   1.382   1_565  S
C1627      F1635   1.382       .  S
C1627      F1636   1.383       .  S
C1627      F1637   1.385       .  S
C1641      C1642   1.403       .  A
C1641      C1646   1.412       .  A
C1641      H1651   1.083       .  S
C1642      C1647   1.487       .  S
C1642      C1643   1.414       .  A
C1643      C1648   1.520       .  S
C1643      C1644   1.406       .  A
C1644      C1645   1.406       .  A
C1644      H1649   1.083       .  S
C1645      C1646   1.420       .  A
C1646      C1650   1.518       .  S
C1647      C1652   1.415       .  A
C1647      C1656   1.402       .  A
C1648      F1664   1.382       .  S
C1648      F1665   1.382   1_565  S
C1648      F1666   1.384   1_565  S
C1650      F1661   1.385       .  S
C1650      F1662   1.383       .  S
C1650      F1663   1.384       .  S
C1652      C1657   1.519       .  S
C1652      C1653   1.408       .  A
C1653      C1654   1.404       .  A
C1653      H1658   1.083       .  S
C1654      C1655   1.420       .  A
C1655      C1659   1.519       .  S
C1655      C1656   1.409       .  A
C1656      H1660   1.083       .  S
C1657      F1670   1.384   1_565  S
C1657      F1671   1.383       .  S
C1657      F1672   1.382   1_565  S
C1659      F1667   1.383       .  S
C1659      F1668   1.384       .  S
C1659      F1669   1.384       .  S
C1673      C1674   1.402       .  A
C1673      C1678   1.410       .  A
C1673      H1683   1.083       .  S
C1674      C1679   1.488       .  S
C1674      C1675   1.415       .  A
C1675      C1680   1.520   1_565  S
C1675      C1676   1.408       .  A
C1676      C1677   1.406       .  A
C1676      H1681   1.083   1_565  S
C1677      C1678   1.420       .  A
C1678      C1682   1.518       .  S
C1679      C1684   1.410       .  A
C1679      C1688   1.399       .  A
C1680      F1696   1.382   1_545  S
C1680      F1697   1.382       .  S
C1680      F1698   1.385       .  S
C1682      F1693   1.385       .  S
C1682      F1694   1.382       .  S
C1682      F1695   1.384       .  S
C1684      C1689   1.520       .  S
C1684      C1685   1.409       .  A
C1685      C1686   1.417       .  A
C1685      H1690   1.078       .  S
C1686      C1687   1.433       .  A
C1687      C1691   1.523       .  S
C1687      C1688   1.408       .  A
C1688      H1692   1.085       .  S
C1689      F1702   1.384   1_565  S
C1689      F1703   1.382       .  S
C1689      F1704   1.382   1_565  S
C1691      F1699   1.385       .  S
C1691      F1700   1.378       .  S
C1691      F1701   1.383       .  S
C1705      C1706   1.397       .  A
C1705      C1710   1.410       .  A
C1705      H1715   1.085       .  S
C1706      C1711   1.489       .  S
C1706      C1707   1.410       .  A
C1707      C1712   1.522       .  S
C1707      C1708   1.408       .  A
C1708      C1709   1.417       .  A
C1708      H1713   1.075       .  S
C1709      C1710   1.437       .  A
C1710      C1714   1.526       .  S
C1711      C1716   1.416       .  A
C1711      C1720   1.401       .  A
C1712      F1728   1.382       .  S
C1712      F1729   1.382   1_565  S
C1712      F1730   1.384       .  S
C1714      F1725   1.385       .  S
C1714      F1726   1.383       .  S
C1714      F1727   1.377       .  S
C1716      C1721   1.520   1_565  S
C1716      C1717   1.408       .  A
C1717      C1718   1.407       .  A
C1717      H1722   1.083   1_565  S
C1718      C1719   1.424       .  A
C1719      C1723   1.520       .  S
C1719      C1720   1.410       .  A
C1720      H1724   1.083       .  S
C1721      F1734   1.385       .  S
C1721      F1735   1.382       .  S
C1721      F1736   1.382       .  S
C1723      F1731   1.382       .  S
C1723      F1732   1.384       .  S
C1723      F1733   1.385       .  S
C1737      C1738   1.398       .  A
C1737      C1742   1.407       .  A
C1737      H1747   1.083       .  S
C1738      C1743   1.486       .  S
C1738      C1739   1.412       .  A
C1739      C1744   1.519       .  S
C1739      C1740   1.413       .  A
C1740      C1741   1.408       .  A
C1740      H1745   1.059       .  S
C1741      C1742   1.425       .  A
C1742      C1746   1.516       .  S
C1743      C1748   1.415       .  A
C1743      C1752   1.404       .  A
C1744      F1760   1.383       .  S
C1744      F1761   1.381       .  S
C1744      F1762   1.383       .  S
C1746      F1757   1.381       .  S
C1746      F1758   1.385       .  S
C1746      F1759   1.381       .  S
C1748      C1753   1.521       .  S
C1748      C1749   1.404       .  A
C1749      C1750   1.405       .  A
C1749      H1754   1.082       .  S
C1750      C1751   1.419       .  A
C1751      C1755   1.518       .  S
C1751      C1752   1.412       .  A
C1752      H1756   1.083       .  S
C1753      F1766   1.385       .  S
C1753      F1767   1.383       .  S
C1753      F1768   1.381       .  S
C1755      F1763   1.385       .  S
C1755      F1764   1.383       .  S
C1755      F1765   1.379       .  S
C1769      C1770   1.398       .  A
C1769      C1774   1.405       .  A
C1769      H1779   1.084       .  S
C1770      C1775   1.486       .  S
C1770      C1771   1.414       .  A
C1771      C1776   1.521       .  S
C1771      C1772   1.411       .  A
C1772      C1773   1.406       .  A
C1772      H1777   1.059       .  S
C1773      C1774   1.428       .  A
C1774      C1778   1.523       .  S
C1775      C1780   1.415       .  A
C1775      C1784   1.398       .  A
C1776      F1792   1.382       .  S
C1776      F1793   1.381       .  S
C1776      F1794   1.384       .  S
C1778      F1789   1.384       .  S
C1778      F1790   1.383       .  S
C1778      F1791   1.379       .  S
C1780      C1785   1.519       .  S
C1780      C1781   1.411       .  A
C1781      C1782   1.408       .  A
C1781      H1786   1.083       .  S
C1782      C1783   1.421       .  A
C1783      C1787   1.514       .  S
C1783      C1784   1.404       .  A
C1784      H1788   1.083       .  S
C1785      F1798   1.385       .  S
C1785      F1799   1.382       .  S
C1785      F1800   1.381       .  S
C1787      F1795   1.378       .  S
C1787      F1796   1.379       .  S
C1787      F1797   1.385       .  S
C1801      C1802   1.400       .  A
C1801      C1806   1.407       .  A
C1801      H1811   1.083       .  S
C1802      C1807   1.488       .  S
C1802      C1803   1.418       .  A
C1803      C1808   1.519       .  S
C1803      C1804   1.410       .  A
C1804      C1805   1.403       .  A
C1804      H1809   1.083       .  S
C1805      C1806   1.422       .  A
C1806      C1810   1.521       .  S
C1807      C1812   1.416       .  A
C1807      C1816   1.401       .  A
C1808      F1824   1.382       .  S
C1808      F1825   1.383       .  S
C1808      F1826   1.384       .  S
C1810      F1821   1.385       .  S
C1810      F1822   1.380       .  S
C1810      F1823   1.380   1_554  S
C1812      C1817   1.519       .  S
C1812      C1813   1.408       .  A
C1813      C1814   1.406       .  A
C1813      H1818   1.083       .  S
C1814      C1815   1.422       .  A
C1815      C1819   1.521       .  S
C1815      C1816   1.404       .  A
C1816      H1820   1.085       .  S
C1817      F1830   1.385       .  S
C1817      F1831   1.382       .  S
C1817      F1832   1.382       .  S
C1819      F1827   1.383       .  S
C1819      F1828   1.381       .  S
C1819      F1829   1.384       .  S
C1833      C1834   1.400       .  A
C1833      C1838   1.407       .  A
C1833      H1843   1.083       .  S
C1834      C1839   1.489       .  S
C1834      C1835   1.416       .  A
C1835      C1840   1.518       .  S
C1835      C1836   1.411       .  A
C1836      C1837   1.404       .  A
C1836      H1841   1.083       .  S
C1837      C1838   1.426       .  A
C1838      C1842   1.525       .  S
C1839      C1844   1.415       .  A
C1839      C1848   1.400       .  A
C1840      F1856   1.382       .  S
C1840      F1857   1.382       .  S
C1840      F1858   1.384       .  S
C1842      F1853   1.385       .  S
C1842      F1854   1.381       .  S
C1842      F1855   1.382       .  S
C1844      C1849   1.520       .  S
C1844      C1845   1.408       .  A
C1845      C1846   1.407       .  A
C1845      H1850   1.082       .  S
C1846      C1847   1.426       .  A
C1847      C1851   1.521       .  S
C1847      C1848   1.407       .  A
C1848      H1852   1.085       .  S
C1849      F1862   1.385       .  S
C1849      F1863   1.382       .  S
C1849      F1864   1.382       .  S
C1851      F1859   1.383       .  S
C1851      F1860   1.379       .  S
C1851      F1861   1.384       .  S
C1865      C1866   1.398   1_554  A
C1865      C1870   1.410       .  A
C1865      H1875   1.085       .  S
C1866      C1871   1.490       .  S
C1866      C1867   1.411       .  A
C1867      C1872   1.520       .  S
C1867      C1868   1.409       .  A
C1868      C1869   1.416       .  A
C1868      H1873   1.077       .  S
C1869      C1870   1.436   1_556  A
C1870      C1874   1.525       .  S
C1871      C1876   1.416       .  A
C1871      C1880   1.403   1_556  A
C1872      F1888   1.382       .  S
C1872      F1889   1.382       .  S
C1872      F1890   1.384       .  S
C1874      F1885   1.383       .  S
C1874      F1886   1.385       .  S
C1874      F1887   1.378       .  S
C1876      C1881   1.519       .  S
C1876      C1877   1.409       .  A
C1877      C1878   1.406       .  A
C1877      H1882   1.083       .  S
C1878      C1879   1.421   1_556  A
C1879      C1883   1.519       .  S
C1879      C1880   1.410       .  A
C1880      H1884   1.083       .  S
C1881      F1894   1.385       .  S
C1881      F1895   1.382       .  S
C1881      F1896   1.382       .  S
C1883      F1891   1.382       .  S
C1883      F1892   1.384       .  S
C1883      F1893   1.385       .  S
C1897      C1898   1.401   1_556  A
C1897      C1902   1.413       .  A
C1897      H1907   1.082       .  S
C1898      C1903   1.493   1_554  S
C1898      C1899   1.416       .  A
C1899      C1904   1.521       .  S
C1899      C1900   1.407       .  A
C1900      C1901   1.407   1_554  A
C1900      H1905   1.083       .  S
C1901      C1902   1.425       .  A
C1902      C1906   1.517       .  S
C1903      C1908   1.417       .  A
C1903      C1912   1.404   1_556  A
C1904      F1920   1.382       .  S
C1904      F1921   1.383       .  S
C1904      F1922   1.384       .  S
C1906      F1917   1.377       .  S
C1906      F1918   1.385       .  S
C1906      F1919   1.379       .  S
C1908      C1913   1.521       .  S
C1908      C1909   1.403       .  A
C1909      C1910   1.404   1_556  A
C1909      H1914   1.081       .  S
C1910      C1911   1.422       .  A
C1911      C1915   1.517       .  S
C1911      C1912   1.413       .  A
C1912      H1916   1.082       .  S
C1913      F1926   1.385       .  S
C1913      F1927   1.382       .  S
C1913      F1928   1.383       .  S
C1915      F1923   1.384       .  S
C1915      F1924   1.379       .  S
C1915      F1925   1.377       .  S
C1929      C1930   1.400       .  A
C1929      C1934   1.404       .  A
C1929      H1939   1.085       .  S
C1930      C1935   1.487       .  S
C1930      C1931   1.416       .  A
C1931      C1936   1.519       .  S
C1931      C1932   1.409       .  A
C1932      C1933   1.406       .  A
C1932      H1937   1.083       .  S
C1933      C1934   1.423       .  A
C1934      C1938   1.522       .  S
C1935      C1940   1.412       .  A
C1935      C1944   1.398       .  A
C1936      F1952   1.382       .  S
C1936      F1953   1.381       .  S
C1936      F1954   1.385       .  S
C1938      F1949   1.383       .  S
C1938      F1950   1.384       .  S
C1938      F1951   1.380       .  S
C1940      C1945   1.521       .  S
C1940      C1941   1.408       .  A
C1941      C1942   1.413       .  A
C1941      H1946   1.079       .  S
C1942      C1943   1.425       .  A
C1943      C1947   1.508       .  S
C1943      C1944   1.410       .  A
C1944      H1948   1.083       .  S
C1945      F1958   1.385       .  S
C1945      F1959   1.382       .  S
C1945      F1960   1.381       .  S
C1947      F1955   1.382       .  S
C1947      F1956   1.380       .  S
C1947      F1957   1.385       .  S
C1961      C1962   1.402       .  A
C1961      C1966   1.412       .  A
C1961      H1971   1.083       .  S
C1962      C1967   1.488       .  S
C1962      C1963   1.414       .  A
C1963      C1968   1.521       .  S
C1963      C1964   1.407       .  A
C1964      C1965   1.408       .  A
C1964      H1969   1.083       .  S
C1965      C1966   1.423       .  A
C1966      C1970   1.518       .  S
C1967      C1972   1.415       .  A
C1967      C1976   1.399       .  A
C1968      F1984   1.382       .  S
C1968      F1985   1.381       .  S
C1968      F1986   1.384       .  S
C1970      F1981   1.379       .  S
C1970      F1982   1.385       .  S
C1970      F1983   1.381       .  S
C1972      C1977   1.518       .  S
C1972      C1973   1.410       .  A
C1973      C1974   1.408       .  A
C1973      H1978   1.082   1_545  S
C1974      C1975   1.426       .  A
C1975      C1979   1.521       .  S
C1975      C1976   1.405       .  A
C1976      H1980   1.085       .  S
C1977      F1990   1.385   1_545  S
C1977      F1991   1.382       .  S
C1977      F1992   1.381       .  S
C1979      F1987   1.384       .  S
C1979      F1988   1.381       .  S
C1979      F1989   1.383       .  S
C1993      C1994   1.402       .  A
C1993      C1998   1.407       .  A
C1993      H2003   1.082       .  S
C1994      C1999   1.488       .  S
C1994      C1995   1.418       .  A
C1995      C2000   1.521       .  S
C1995      C1996   1.406       .  A
C1996      C1997   1.404       .  A
C1996      H2001   1.081       .  S
C1997      C1998   1.420       .  A
C1998      C2002   1.518       .  S
C1999      C2004   1.419       .  A
C1999      C2008   1.400       .  A
C2000      F2016   1.381       .  S
C2000      F2017   1.383       .  S
C2000      F2018   1.385       .  S
C2002      F2013   1.385       .  S
C2002      F2014   1.379       .  S
C2002      F2015   1.382       .  S
C2004      C2009   1.519       .  S
C2004      C2005   1.410       .  A
C2005      C2006   1.404       .  A
C2005      H2010   1.083       .  S
C2006      C2007   1.417       .  A
C2007      C2011   1.515       .  S
C2007      C2008   1.402       .  A
C2008      H2012   1.084       .  S
C2009      F2022   1.385       .  S
C2009      F2023   1.381       .  S
C2009      F2024   1.382       .  S
C2011      F2019   1.377       .  S
C2011      F2020   1.383       .  S
C2011      F2021   1.385       .  S
C2025      C2026   1.404       .  A
C2025      C2030   1.408       .  A
C2025      H2035   1.084       .  S
C2026      C2031   1.492       .  S
C2026      C2027   1.418       .  A
C2027      C2032   1.521       .  S
C2027      C2028   1.406       .  A
C2028      C2029   1.404       .  A
C2028      H2033   1.083       .  S
C2029      C2030   1.418       .  A
C2030      C2034   1.516       .  S
C2031      C2036   1.415       .  A
C2031      C2040   1.398       .  A
C2032      F2048   1.381       .  S
C2032      F2049   1.383       .  S
C2032      F2050   1.385       .  S
C2034      F2045   1.384       .  S
C2034      F2046   1.383       .  S
C2034      F2047   1.379       .  S
C2036      C2041   1.520       .  S
C2036      C2037   1.408       .  A
C2037      C2038   1.410       .  A
C2037      H2042   1.082       .  S
C2038      C2039   1.431       .  A
C2039      C2043   1.520       .  S
C2039      C2040   1.411       .  A
C2040      H2044   1.083       .  S
C2041      F2054   1.385       .  S
C2041      F2055   1.381       .  S
C2041      F2056   1.383       .  S
C2043      F2051   1.379   1_455  S
C2043      F2052   1.374   1_455  S
C2043      F2053   1.385       .  S
C2057      C2058   1.399   1_554  A
C2057      C2062   1.410       .  A
C2057      H2067   1.085       .  S
C2058      C2063   1.490       .  S
C2058      C2059   1.412       .  A
C2059      C2064   1.521       .  S
C2059      C2060   1.406       .  A
C2060      C2061   1.415       .  A
C2060      H2065   1.077       .  S
C2061      C2062   1.435   1_556  A
C2062      C2066   1.524       .  S
C2063      C2068   1.416       .  A
C2063      C2072   1.400   1_556  A
C2064      F2080   1.382       .  S
C2064      F2081   1.382       .  S
C2064      F2082   1.385       .  S
C2066      F2077   1.385   1_554  S
C2066      F2078   1.383       .  S
C2066      F2079   1.378       .  S
C2068      C2073   1.520       .  S
C2068      C2069   1.410       .  A
C2069      C2070   1.408       .  A
C2069      H2074   1.083       .  S
C2070      C2071   1.424   1_556  A
C2071      C2075   1.520       .  S
C2071      C2072   1.409       .  A
C2072      H2076   1.083       .  S
C2073      F2086   1.384       .  S
C2073      F2087   1.382       .  S
C2073      F2088   1.382       .  S
C2075      F2083   1.383       .  S
C2075      F2084   1.384       .  S
C2075      F2085   1.385       .  S
C2089      C2090   1.403   1_554  A
C2089      C2094   1.415       .  A
C2089      H2099   1.083       .  S
C2090      C2095   1.485   1_556  S
C2090      C2091   1.413       .  A
C2091      C2096   1.523       .  S
C2091      C2092   1.402       .  A
C2092      C2093   1.409       .  A
C2092      H2097   1.083       .  S
C2093      C2094   1.423   1_556  A
C2094      C2098   1.516       .  S
C2095      C2100   1.413   1_554  A
C2095      C2104   1.396       .  A
C2096      F2112   1.383       .  S
C2096      F2113   1.381       .  S
C2096      F2114   1.385       .  S
C2098      F2109   1.380       .  S
C2098      F2110   1.385       .  S
C2098      F2111   1.378       .  S
C2100      C2105   1.516       .  S
C2100      C2101   1.413       .  A
C2101      C2102   1.409   1_556  A
C2101      H2106   1.081       .  S
C2102      C2103   1.427       .  A
C2103      C2107   1.521       .  S
C2103      C2104   1.401       .  A
C2104      H2108   1.085       .  S
C2105      F2118   1.384       .  S
C2105      F2119   1.383       .  S
C2105      F2120   1.382       .  S
C2107      F2115   1.384       .  S
C2107      F2116   1.378       .  S
C2107      F2117   1.383       .  S
C2121      C2122   1.402   1_554  A
C2121      C2126   1.411       .  A
C2121      H2131   1.083       .  S
C2122      C2127   1.488       .  S
C2122      C2123   1.414       .  A
C2123      C2128   1.520       .  S
C2123      C2124   1.407       .  A
C2124      C2125   1.407   1_556  A
C2124      H2129   1.083       .  S
C2125      C2126   1.424       .  A
C2126      C2130   1.520       .  S
C2127      C2132   1.417       .  A
C2127      C2136   1.403   1_556  A
C2128      F2144   1.382       .  S
C2128      F2145   1.382       .  S
C2128      F2146   1.384       .  S
C2130      F2141   1.385       .  S
C2130      F2142   1.383       .  S
C2130      F2143   1.384       .  S
C2132      C2137   1.519       .  S
C2132      C2133   1.409       .  A
C2133      C2134   1.404       .  A
C2133      H2138   1.083       .  S
C2134      C2135   1.417   1_556  A
C2135      C2139   1.519       .  S
C2135      C2136   1.409       .  A
C2136      H2140   1.083       .  S
C2137      F2150   1.385       .  S
C2137      F2151   1.382       .  S
C2137      F2152   1.382       .  S
C2139      F2147   1.382       .  S
C2139      F2148   1.383       .  S
C2139      F2149   1.385       .  S
C2153      C2154   1.397       .  A
C2153      C2158   1.408       .  A
C2153      H2163   1.083       .  S
C2154      C2159   1.488       .  S
C2154      C2155   1.413   1_556  A
C2155      C2160   1.519       .  S
C2155      C2156   1.410       .  A
C2156      C2157   1.411   1_554  A
C2156      H2161   1.082       .  S
C2157      C2158   1.430       .  A
C2158      C2162   1.522       .  S
C2159      C2164   1.411       .  A
C2159      C2168   1.398       .  A
C2160      F2176   1.382       .  S
C2160      F2177   1.382       .  S
C2160      F2178   1.385       .  S
C2162      F2173   1.385       .  S
C2162      F2174   1.380       .  S
C2162      F2175   1.383       .  S
C2164      C2169   1.522       .  S
C2164      C2165   1.406       .  A
C2165      C2166   1.415       .  A
C2165      H2170   1.076       .  S
C2166      C2167   1.435       .  A
C2167      C2171   1.524       .  S
C2167      C2168   1.410       .  A
C2168      H2172   1.085   1_556  S
C2169      F2182   1.384       .  S
C2169      F2183   1.382       .  S
C2169      F2184   1.382       .  S
C2171      F2179   1.385       .  S
C2171      F2180   1.377       .  S
C2171      F2181   1.383   1_556  S
C2185      C2186   1.402       .  A
C2185      C2190   1.410       .  A
C2185      H2195   1.083       .  S
C2186      C2191   1.488       .  S
C2186      C2187   1.416       .  A
C2187      C2192   1.520       .  S
C2187      C2188   1.406       .  A
C2188      C2189   1.405       .  A
C2188      H2193   1.081       .  S
C2189      C2190   1.419       .  A
C2190      C2194   1.517       .  S
C2191      C2196   1.413       .  A
C2191      C2200   1.397       .  A
C2192      F2208   1.382       .  S
C2192      F2209   1.382       .  S
C2192      F2210   1.385       .  S
C2194      F2205   1.384       .  S
C2194      F2206   1.380       .  S
C2194      F2207   1.382       .  S
C2196      C2201   1.519       .  S
C2196      C2197   1.410       .  A
C2197      C2198   1.404       .  A
C2197      H2202   1.070       .  S
C2198      C2199   1.432       .  A
C2199      C2203   1.524       .  S
C2199      C2200   1.406       .  A
C2200      H2204   1.085       .  S
C2201      F2214   1.385       .  S
C2201      F2215   1.382       .  S
C2201      F2216   1.382       .  S
C2203      F2211   1.382       .  S
C2203      F2212   1.379       .  S
C2203      F2213   1.385       .  S
C2217      C2218   1.397       .  A
C2217      C2222   1.400       .  A
C2217      H2227   1.085       .  S
C2218      C2223   1.488       .  S
C2218      C2219   1.417       .  A
C2219      C2224   1.518       .  S
C2219      C2220   1.414       .  A
C2220      C2221   1.406       .  A
C2220      H2225   1.082       .  S
C2221      C2222   1.424       .  A
C2222      C2226   1.520       .  S
C2223      C2228   1.418       .  A
C2223      C2232   1.403       .  A
C2224      F2240   1.382       .  S
C2224      F2241   1.382       .  S
C2224      F2242   1.385       .  S
C2226      F2237   1.385       .  S
C2226      F2238   1.383       .  S
C2226      F2239   1.379       .  S
C2228      C2233   1.520       .  S
C2228      C2229   1.408       .  A
C2229      C2230   1.404       .  A
C2229      H2234   1.083       .  S
C2230      C2231   1.420       .  A
C2231      C2235   1.518       .  S
C2231      C2232   1.406       .  A
C2232      H2236   1.084       .  S
C2233      F2246   1.385       .  S
C2233      F2247   1.381       .  S
C2233      F2248   1.382       .  S
C2235      F2243   1.383       .  S
C2235      F2244   1.383       .  S
C2235      F2245   1.384       .  S
C2249      C2250   1.404       .  A
C2249      C2254   1.412       .  A
C2249      H2259   1.083       .  S
C2250      C2255   1.488       .  S
C2250      C2251   1.416       .  A
C2251      C2256   1.523       .  S
C2251      C2252   1.402       .  A
C2252      C2253   1.403       .  A
C2252      H2257   1.077       .  S
C2253      C2254   1.418       .  A
C2254      C2258   1.518       .  S
C2255      C2260   1.415       .  A
C2255      C2264   1.397       .  A
C2256      F2272   1.382       .  S
C2256      F2273   1.383       .  S
C2256      F2274   1.384       .  S
C2258      F2269   1.385       .  S
C2258      F2270   1.379       .  S
C2258      F2271   1.383       .  S
C2260      C2265   1.518       .  S
C2260      C2261   1.409       .  A
C2261      C2262   1.407       .  A
C2261      H2266   1.083       .  S
C2262      C2263   1.425       .  A
C2263      C2267   1.517       .  S
C2263      C2264   1.406       .  A
C2264      H2268   1.083       .  S
C2265      F2278   1.384       .  S
C2265      F2279   1.382       .  S
C2265      F2280   1.383       .  S
C2267      F2275   1.378   1_554  S
C2267      F2276   1.377   1_554  S
C2267      F2277   1.385       .  S
C2281      C2282   1.398       .  A
C2281      C2286   1.406       .  A
C2281      H2291   1.085       .  S
C2282      C2287   1.489       .  S
C2282      C2283   1.413       .  A
C2283      C2288   1.519       .  S
C2283      C2284   1.408       .  A
C2284      C2285   1.405       .  A
C2284      H2289   1.071       .  S
C2285      C2286   1.434       .  A
C2286      C2290   1.527       .  S
C2287      C2292   1.418       .  A
C2287      C2296   1.404       .  A
C2288      F2304   1.382       .  S
C2288      F2305   1.383       .  S
C2288      F2306   1.385       .  S
C2290      F2301   1.385       .  S
C2290      F2302   1.383       .  S
C2290      F2303   1.380       .  S
C2292      C2297   1.521       .  S
C2292      C2293   1.406       .  A
C2293      C2294   1.402       .  A
C2293      H2298   1.084   1_545  S
C2294      C2295   1.414       .  A
C2295      C2299   1.514       .  S
C2295      C2296   1.410       .  A
C2296      H2300   1.083       .  S
C2297      F2310   1.385   1_545  S
C2297      F2311   1.381       .  S
C2297      F2312   1.383       .  S
C2299      F2307   1.382       .  S
C2299      F2308   1.383       .  S
C2299      F2309   1.384       .  S
C2313      C2314   1.394       .  A
C2313      C2318   1.406       .  A
C2313      H2323   1.085       .  S
C2314      C2319   1.484       .  S
C2314      C2315   1.410   1_556  A
C2315      C2320   1.521       .  S
C2315      C2316   1.408       .  A
C2316      C2317   1.416   1_554  A
C2316      H2321   1.074       .  S
C2317      C2318   1.440       .  A
C2318      C2322   1.529       .  S
C2319      C2324   1.415   1_556  A
C2319      C2328   1.400       .  A
C2320      F2336   1.382       .  S
C2320      F2337   1.382       .  S
C2320      F2338   1.384       .  S
C2322      F2333   1.383       .  S
C2322      F2334   1.385       .  S
C2322      F2335   1.375       .  S
C2324      C2329   1.519       .  S
C2324      C2325   1.408       .  A
C2325      C2326   1.406   1_554  A
C2325      H2330   1.083       .  S
C2326      C2327   1.418       .  A
C2327      C2331   1.515       .  S
C2327      C2328   1.406       .  A
C2328      H2332   1.083       .  S
C2329      F2342   1.384       .  S
C2329      F2343   1.382       .  S
C2329      F2344   1.382       .  S
C2331      F2339   1.382       .  S
C2331      F2340   1.383       .  S
C2331      F2341   1.385       .  S
C2345      C2346   1.401   1_556  A
C2345      C2350   1.411       .  A
C2345      H2355   1.083       .  S
C2346      C2351   1.486       .  S
C2346      C2347   1.414       .  A
C2347      C2352   1.522       .  S
C2347      C2348   1.407       .  A
C2348      C2349   1.411       .  A
C2348      H2353   1.083       .  S
C2349      C2350   1.419   1_554  A
C2350      C2354   1.509       .  S
C2351      C2356   1.414       .  A
C2351      C2360   1.397   1_554  A
C2352      F2368   1.383       .  S
C2352      F2369   1.381       .  S
C2352      F2370   1.384       .  S
C2354      F2365   1.381       .  S
C2354      F2366   1.384       .  S
C2354      F2367   1.383       .  S
C2356      C2361   1.517       .  S
C2356      C2357   1.414       .  A
C2357      C2358   1.409       .  A
C2357      H2362   1.082       .  S
C2358      C2359   1.427   1_554  A
C2359      C2363   1.522       .  S
C2359      C2360   1.401       .  A
C2360      H2364   1.085       .  S
C2361      F2374   1.384       .  S
C2361      F2375   1.383       .  S
C2361      F2376   1.381       .  S
C2363      F2371   1.385       .  S
C2363      F2372   1.377       .  S
C2363      F2373   1.383       .  S
C2377      C2378   1.403   1_556  A
C2377      C2382   1.409       .  A
C2377      H2387   1.083       .  S
C2378      C2383   1.489       .  S
C2378      C2379   1.417       .  A
C2379      C2384   1.519       .  S
C2379      C2380   1.409       .  A
C2380      C2381   1.404       .  A
C2380      H2385   1.083       .  S
C2381      C2382   1.417   1_554  A
C2382      C2386   1.518       .  S
C2383      C2388   1.416       .  A
C2383      C2392   1.401   1_554  A
C2384      F2400   1.382       .  S
C2384      F2401   1.382       .  S
C2384      F2402   1.385       .  S
C2386      F2397   1.385       .  S
C2386      F2398   1.382       .  S
C2386      F2399   1.383       .  S
C2388      C2393   1.519       .  S
C2388      C2389   1.409       .  A
C2389      C2390   1.405   1_554  A
C2389      H2394   1.083       .  S
C2390      C2391   1.423       .  A
C2391      C2395   1.521       .  S
C2391      C2392   1.409       .  A
C2392      H2396   1.083       .  S
C2393      F2406   1.384       .  S
C2393      F2407   1.382       .  S
C2393      F2408   1.382       .  S
C2395      F2403   1.383       .  S
C2395      F2404   1.384       .  S
C2395      F2405   1.385       .  S
C2409      C2410   1.404   1_556  A
C2409      C2414   1.411       .  A
C2409      H2419   1.083       .  S
C2410      C2415   1.492       .  S
C2410      C2411   1.419       .  A
C2411      C2416   1.520       .  S
C2411      C2412   1.408       .  A
C2412      C2413   1.403       .  A
C2412      H2417   1.083       .  S
C2413      C2414   1.418   1_554  A
C2414      C2418   1.518       .  S
C2415      C2420   1.411   1_554  A
C2415      C2424   1.398       .  A
C2416      F2432   1.382       .  S
C2416      F2433   1.383       .  S
C2416      F2434   1.384       .  S
C2418      F2429   1.382       .  S
C2418      F2430   1.384       .  S
C2418      F2431   1.383       .  S
C2420      C2425   1.520       .  S
C2420      C2421   1.406       .  A
C2421      C2422   1.416   1_556  A
C2421      H2426   1.081       .  S
C2422      C2423   1.435       .  A
C2423      C2427   1.521       .  S
C2423      C2424   1.412       .  A
C2424      H2428   1.084       .  S
C2425      F2438   1.385       .  S
C2425      F2439   1.382       .  S
C2425      F2440   1.383       .  S
C2427      F2435   1.382       .  S
C2427      F2436   1.382       .  S
C2427      F2437   1.386       .  S
C2441      C2442   1.399       .  A
C2441      C2446   1.406       .  A
C2441      H2451   1.084       .  S
C2442      C2447   1.489       .  S
C2442      C2443   1.415       .  A
C2443      C2448   1.519       .  S
C2443      C2444   1.411       .  A
C2444      C2445   1.409       .  A
C2444      H2449   1.083       .  S
C2445      C2446   1.428       .  A
C2446      C2450   1.526       .  S
C2447      C2452   1.412       .  A
C2447      C2456   1.400       .  A
C2448      F2464   1.382       .  S
C2448      F2465   1.382       .  S
C2448      F2466   1.385       .  S
C2450      F2461   1.382       .  S
C2450      F2462   1.385       .  S
C2450      F2463   1.381       .  S
C2452      C2457   1.520       .  S
C2452      C2453   1.405       .  A
C2453      C2454   1.414       .  A
C2453      H2458   1.082       .  S
C2454      C2455   1.431       .  A
C2455      C2459   1.517       .  S
C2455      C2456   1.413       .  A
C2456      H2460   1.083       .  S
C2457      F2470   1.384       .  S
C2457      F2471   1.382       .  S
C2457      F2472   1.382       .  S
C2459      F2467   1.371       .  S
C2459      F2468   1.382       .  S
C2459      F2469   1.385       .  S
C2473      C2474   1.399       .  A
C2473      C2478   1.408       .  A
C2473      H2483   1.083       .  S
C2474      C2479   1.483       .  S
C2474      C2475   1.412       .  A
C2475      C2480   1.520       .  S
C2475      C2476   1.406       .  A
C2476      C2477   1.411       .  A
C2476      H2481   1.082       .  S
C2477      C2478   1.425       .  A
C2478      C2482   1.517       .  S
C2479      C2484   1.413       .  A
C2479      C2488   1.396       .  A
C2480      F2496   1.383       .  S
C2480      F2497   1.382       .  S
C2480      F2498   1.385       .  S
C2482      F2493   1.379   1_554  S
C2482      F2494   1.385       .  S
C2482      F2495   1.375   1_554  S
C2484      C2489   1.519       .  S
C2484      C2485   1.410       .  A
C2485      C2486   1.405       .  A
C2485      H2490   1.074       .  S
C2486      C2487   1.429       .  A
C2487      C2491   1.521       .  S
C2487      C2488   1.402       .  A
C2488      H2492   1.085       .  S
C2489      F2502   1.384       .  S
C2489      F2503   1.382       .  S
C2489      F2504   1.382       .  S
C2491      F2499   1.376       .  S
C2491      F2500   1.383       .  S
C2491      F2501   1.385       .  S
C2505      C2506   1.405       .  A
C2505      C2510   1.411       .  A
C2505      H2515   1.084       .  S
C2506      C2511   1.495       .  S
C2506      C2507   1.419       .  A
C2507      C2512   1.520       .  S
C2507      C2508   1.405       .  A
C2508      C2509   1.402       .  A
C2508      H2513   1.083       .  S
C2509      C2510   1.418       .  A
C2510      C2514   1.516       .  S
C2511      C2516   1.414       .  A
C2511      C2520   1.396       .  A
C2512      F2528   1.381       .  S
C2512      F2529   1.382       .  S
C2512      F2530   1.385       .  S
C2514      F2525   1.384       .  S
C2514      F2526   1.382       .  S
C2514      F2527   1.381       .  S
C2516      C2521   1.520       .  S
C2516      C2517   1.410       .  A
C2517      C2518   1.414       .  A
C2517      H2522   1.081       .  S
C2518      C2519   1.435       .  A
C2519      C2523   1.518       .  S
C2519      C2520   1.412       .  A
C2520      H2524   1.083       .  S
C2521      F2534   1.384       .  S
C2521      F2535   1.382       .  S
C2521      F2536   1.383       .  S
C2523      F2531   1.381       .  S
C2523      F2532   1.373   1_655  S
C2523      F2533   1.385       .  S
C2537      C2538   1.402       .  A
C2537      C2542   1.413       .  A
C2537      H2547   1.083       .  S
C2538      C2543   1.494       .  S
C2538      C2539   1.414   1_554  A
C2539      C2544   1.519       .  S
C2539      C2540   1.410       .  A
C2540      C2541   1.409   1_556  A
C2540      H2545   1.082       .  S
C2541      C2542   1.426       .  A
C2542      C2546   1.520       .  S
C2543      C2548   1.411       .  A
C2543      C2552   1.400   1_554  A
C2544      F2560   1.382       .  S
C2544      F2561   1.382       .  S
C2544      F2562   1.384       .  S
C2546      F2557   1.385       .  S
C2546      F2558   1.384       .  S
C2546      F2559   1.383       .  S
C2548      C2553   1.521       .  S
C2548      C2549   1.408       .  A
C2549      C2550   1.417       .  A
C2549      H2554   1.078       .  S
C2550      C2551   1.436   1_554  A
C2551      C2555   1.523       .  S
C2551      C2552   1.413       .  A
C2552      H2556   1.085       .  S
C2553      F2566   1.385       .  S
C2553      F2567   1.382       .  S
C2553      F2568   1.382       .  S
C2555      F2563   1.385       .  S
C2555      F2564   1.378       .  S
C2555      F2565   1.383       .  S
C2569      C2570   1.400       .  A
C2569      C2574   1.404       .  A
C2569      H2579   1.084       .  S
C2570      C2575   1.493       .  S
C2570      C2571   1.420       .  A
C2571      C2576   1.518       .  S
C2571      C2572   1.412       .  A
C2572      C2573   1.403       .  A
C2572      H2577   1.083       .  S
C2573      C2574   1.423       .  A
C2574      C2578   1.520       .  S
C2575      C2580   1.419       .  A
C2575      C2584   1.401       .  A
C2576      F2592   1.381       .  S
C2576      F2593   1.382       .  S
C2576      F2594   1.385       .  S
C2578      F2589   1.385       .  S
C2578      F2590   1.382       .  S
C2578      F2591   1.382       .  S
C2580      C2585   1.520       .  S
C2580      C2581   1.412       .  A
C2581      C2582   1.405       .  A
C2581      H2586   1.082       .  S
C2582      C2583   1.419       .  A
C2583      C2587   1.517       .  S
C2583      C2584   1.408       .  A
C2584      H2588   1.083       .  S
C2585      F2598   1.385       .  S
C2585      F2599   1.381       .  S
C2585      F2600   1.383       .  S
C2587      F2595   1.380       .  S
C2587      F2596   1.382       .  S
C2587      F2597   1.385       .  S
C2601      C2602   1.396       .  A
C2601      C2606   1.400       .  A
C2601      H2611   1.085       .  S
C2602      C2607   1.484       .  S
C2602      C2603   1.413   1_554  A
C2603      C2608   1.517       .  S
C2603      C2604   1.413       .  A
C2604      C2605   1.410   1_556  A
C2604      H2609   1.080       .  S
C2605      C2606   1.428       .  A
C2606      C2610   1.521       .  S
C2607      C2612   1.415   1_554  A
C2607      C2616   1.403       .  A
C2608      F2624   1.383       .  S
C2608      F2625   1.381       .  S
C2608      F2626   1.384       .  S
C2610      F2621   1.383       .  S
C2610      F2622   1.385       .  S
C2610      F2623   1.379       .  S
C2612      C2617   1.522       .  S
C2612      C2613   1.404       .  A
C2613      C2614   1.405       .  A
C2613      H2618   1.083       .  S
C2614      C2615   1.420   1_556  A
C2615      C2619   1.517       .  S
C2615      C2616   1.412       .  A
C2616      H2620   1.083       .  S
C2617      F2630   1.384       .  S
C2617      F2631   1.383       .  S
C2617      F2632   1.381       .  S
C2619      F2627   1.385       .  S
C2619      F2628   1.381       .  S
C2619      F2629   1.381       .  S
C2633      C2634   1.401   1_556  A
C2633      C2638   1.407       .  A
C2633      H2643   1.083       .  S
C2634      C2639   1.487       .  S
C2634      C2635   1.416       .  A
C2635      C2640   1.520       .  S
C2635      C2636   1.410       .  A
C2636      C2637   1.406       .  A
C2636      H2641   1.083       .  S
C2637      C2638   1.421   1_554  A
C2638      C2642   1.519       .  S
C2639      C2644   1.416       .  A
C2639      C2648   1.402   1_554  A
C2640      F2656   1.382       .  S
C2640      F2657   1.381       .  S
C2640      F2658   1.385       .  S
C2642      F2653   1.385       .  S
C2642      F2654   1.383       .  S
C2642      F2655   1.383       .  S
C2644      C2649   1.519       .  S
C2644      C2645   1.408       .  A
C2645      C2646   1.404       .  A
C2645      H2650   1.083       .  S
C2646      C2647   1.421   1_554  A
C2647      C2651   1.520       .  S
C2647      C2648   1.409       .  A
C2648      H2652   1.083       .  S
C2649      F2662   1.384       .  S
C2649      F2663   1.382       .  S
C2649      F2664   1.381       .  S
C2651      F2659   1.382       .  S
C2651      F2660   1.383       .  S
C2651      F2661   1.385       .  S
C2665      C2666   1.402   1_556  A
C2665      C2670   1.410       .  A
C2665      H2675   1.083       .  S
C2666      C2671   1.485       .  S
C2666      C2667   1.415       .  A
C2667      C2672   1.520       .  S
C2667      C2668   1.407       .  A
C2668      C2669   1.405   1_554  A
C2668      H2673   1.083       .  S
C2669      C2670   1.421       .  A
C2670      C2674   1.519       .  S
C2671      C2676   1.415       .  A
C2671      C2680   1.401   1_554  A
C2672      F2688   1.383       .  S
C2672      F2689   1.382       .  S
C2672      F2690   1.384       .  S
C2674      F2685   1.385       .  S
C2674      F2686   1.383       .  S
C2674      F2687   1.383       .  S
C2676      C2681   1.520       .  S
C2676      C2677   1.407       .  A
C2677      C2678   1.405       .  A
C2677      H2682   1.083       .  S
C2678      C2679   1.420   1_554  A
C2679      C2683   1.519       .  S
C2679      C2680   1.408       .  A
C2680      H2684   1.083       .  S
C2681      F2694   1.385       .  S
C2681      F2695   1.382       .  S
C2681      F2696   1.382       .  S
C2683      F2691   1.382       .  S
C2683      F2692   1.384       .  S
C2683      F2693   1.385       .  S
C2697      C2698   1.400   1_556  A
C2697      C2702   1.408       .  A
C2697      H2707   1.083       .  S
C2698      C2703   1.484       .  S
C2698      C2699   1.414       .  A
C2699      C2704   1.520       .  S
C2699      C2700   1.407       .  A
C2700      C2701   1.408       .  A
C2700      H2705   1.083       .  S
C2701      C2702   1.424   1_554  A
C2702      C2706   1.520       .  S
C2703      C2708   1.411       .  A
C2703      C2712   1.394   1_554  A
C2704      F2720   1.382       .  S
C2704      F2721   1.381       .  S
C2704      F2722   1.385       .  S
C2706      F2717   1.385       .  S
C2706      F2718   1.383       .  S
C2706      F2719   1.383       .  S
C2708      C2713   1.520       .  S
C2708      C2709   1.411       .  A
C2709      C2710   1.418   1_554  A
C2709      H2714   1.078       .  S
C2710      C2711   1.435       .  A
C2711      C2715   1.521       .  S
C2711      C2712   1.403       .  A
C2712      H2716   1.086       .  S
C2713      F2726   1.384       .  S
C2713      F2727   1.382       .  S
C2713      F2728   1.381       .  S
C2715      F2723   1.385       .  S
C2715      F2724   1.371       .  S
C2715      F2725   1.383       .  S
C2729      C2730   1.402       .  A
C2729      C2734   1.410       .  A
C2729      H2739   1.083       .  S
C2730      C2735   1.488       .  S
C2730      C2731   1.416   1_554  A
C2731      C2736   1.519       .  S
C2731      C2732   1.407       .  A
C2732      C2733   1.404   1_556  A
C2732      H2737   1.083       .  S
C2733      C2734   1.419       .  A
C2734      C2738   1.519       .  S
C2735      C2740   1.411   1_554  A
C2735      C2744   1.396       .  A
C2736      F2752   1.383       .  S
C2736      F2753   1.382       .  S
C2736      F2754   1.384       .  S
C2738      F2749   1.385       .  S
C2738      F2750   1.382       .  S
C2738      F2751   1.383       .  S
C2740      C2745   1.520       .  S
C2740      C2741   1.409       .  A
C2741      C2742   1.416   1_556  A
C2741      H2746   1.077       .  S
C2742      C2743   1.438       .  A
C2743      C2747   1.526       .  S
C2743      C2744   1.408       .  A
C2744      H2748   1.085       .  S
C2745      F2758   1.384       .  S
C2745      F2759   1.382       .  S
C2745      F2760   1.383       .  S
C2747      F2755   1.385       .  S
C2747      F2756   1.376       .  S
C2747      F2757   1.383       .  S
