geometry optimzed in LAMMPS
_audit_creation_date              2020-11-30 
_audit_creation_method            'lammps2cif' 
_symmetry_space_group_name_H-M    'P1' 
_symmetry_Int_Tables_number       1 
_symmetry_cell_setting            triclinic 
loop_ 
_symmetry_equiv_pos_as_xyz 
  x,y,z 
_cell_length_a                    47.49992501 
_cell_length_b                    48.000063792465234 
_cell_length_c                    23.212409609358172 
_cell_angle_alpha                 90.5668512039437 
_cell_angle_beta                  90.56548865067828 
_cell_angle_gamma                 90.12314281364577 
loop_ 
_atom_site_label 
_atom_site_type_symbol 
_atom_site_fract_x 
_atom_site_fract_y 
_atom_site_fract_z 
_atom_site_charge 
C1          C  0.90172582  0.77377173  0.02025258     0.88200
C2          C  0.89724433  0.75700296  0.07472025    -0.52100
C3          C  0.87179629  0.74376120  0.07754941     0.11100
C4          C  0.85244053  0.74930924  0.02436981     0.22100
C5          C  0.88815883  0.75291975  0.46920771    -0.52800
C6          C  0.86213554  0.74042524  0.46785615     0.11200
C7          C  0.87687432  0.79380498  0.01751886    -0.52300
C8          C  0.85077965  0.78161896  0.01957998     0.11800
H9          H  0.91364544  0.75461596  0.10728102     0.16300
H10         H  0.83163985  0.73876589  0.02592764     0.02000
H11         H  0.90367996  0.74956737  0.43615916     0.16600
H12         H  0.88009601  0.81596266  0.01135224     0.16400
O13         O  0.87517383  0.61973363  0.30782743    -0.72700
O14         O  0.86799764  0.67690716  0.19593934    -0.72800
O15         O  0.88132316  0.67574284  0.30968172    -0.72800
O16         O  0.86059143  0.62073542  0.19559196    -0.72900
O17         O  0.81528854  0.62696749  0.21629400    -0.72800
O18         O  0.83613511  0.68087494  0.33253623    -0.72800
O19         O  0.82286638  0.68338829  0.21726145    -0.72800
O20         O  0.82973265  0.62417088  0.32925799    -0.72800
Ni21       Ni  0.87280051  0.64819376  0.25137709     1.25400
Ni22       Ni  0.82435153  0.65413736  0.27471662     1.25400
C23         C  0.85367048  0.61199164  0.33603460     0.89400
C24         C  0.84470056  0.68969993  0.18771690     0.89400
C25         C  0.86214819  0.68705709  0.34054783     0.89400
C26         C  0.83451580  0.61431803  0.18821253     0.89600
C27         C  0.90796926  0.25773058  0.99875591     0.88200
C28         C  0.89253469  0.26860169  0.44735566    -0.52100
C29         C  0.86754000  0.28192167  0.45851496     0.11100
C30         C  0.85869700  0.27919311  0.02330070     0.22100
C31         C  0.90822546  0.27673616  0.05222952    -0.52800
C32         C  0.88279794  0.28808069  0.06537172     0.11200
C33         C  0.88505547  0.23616594  0.01088649    -0.52300
C34         C  0.85925145  0.24693219  0.02315563     0.11800
H35         H  0.90323337  0.26963653  0.40631848     0.16300
H36         H  0.83782346  0.28821854  0.03339793     0.02000
H37         H  0.92673891  0.28133060  0.07821394     0.16600
H38         H  0.88890116  0.21385970  0.00968853     0.16400
O39         O  0.87728833  0.40503354  0.20346113    -0.72700
O40         O  0.88573408  0.35063991  0.31824165    -0.72800
O41         O  0.88114178  0.34924484  0.20239551    -0.72800
O42         O  0.87976072  0.40654750  0.31902556    -0.72900
O43         O  0.83310197  0.40211089  0.32481291    -0.72800
O44         O  0.83447726  0.34529547  0.20821243    -0.72800
O45         O  0.83929441  0.34522311  0.32608783    -0.72800
O46         O  0.83048211  0.40209107  0.20834383    -0.72800
Ni47       Ni  0.88254192  0.37794648  0.26076062     1.25400
Ni48       Ni  0.83256698  0.37343205  0.26714403     1.25400
C49         C  0.85296369  0.41290671  0.18721536     0.89400
C50         C  0.86464609  0.33878450  0.34105902     0.89400
C51         C  0.85779926  0.33817540  0.18541764     0.89400
C52         C  0.85603644  0.41421553  0.33986608     0.89600
O53         O  0.81501845  0.54252815  0.46049187    -0.72700
O54         O  0.80953802  0.48590550  0.07450344    -0.72800
O55         O  0.81497759  0.54273518  0.07256998    -0.72800
O56         O  0.81161949  0.48570026  0.46111129    -0.72900
O57         O  0.85822891  0.48393166  0.45185570    -0.72800
O58         O  0.86159026  0.53748943  0.06954502    -0.72800
O59         O  0.85613766  0.48119307  0.06922194    -0.72800
O60         O  0.86173124  0.54063194  0.45263997    -0.72800
Ni61       Ni  0.80916428  0.51325071  0.01542136     1.25400
Ni62       Ni  0.85922708  0.50962385  0.01139460     1.25400
C63         C  0.83780461  0.55131896  0.43847423     0.89400
C64         C  0.83226265  0.47395525  0.09023110     0.89400
C65         C  0.83996084  0.54988564  0.08910986     0.89400
C66         C  0.83375869  0.47482793  0.43864553     0.89600
C67         C  0.79365658  0.89772613  0.99584462     0.88200
C68         C  0.76870177  0.89343132  0.44202805    -0.52100
C69         C  0.75575773  0.86798145  0.43901713     0.11100
C70         C  0.77246092  0.84730557  0.99877453     0.22100
C71         C  0.77312676  0.89319939  0.04569185    -0.52800
C72         C  0.76183668  0.86672228  0.04720653     0.11200
C73         C  0.81554087  0.87478111  0.00336577    -0.52300
C74         C  0.80498945  0.84834195  0.00592378     0.11800
H75         H  0.76565666  0.90975429  0.41063346     0.16300
H76         H  0.76331073  0.82601299  0.00007301     0.02000
H77         H  0.76843384  0.90913332  0.07749380     0.16600
H78         H  0.83781855  0.87933656  0.00935029     0.16400
O79         O  0.63257024  0.88174862  0.17338124    -0.72700
O80         O  0.68827347  0.89551606  0.29136088    -0.72800
O81         O  0.68835670  0.89225591  0.17517254    -0.72800
O82         O  0.63236420  0.88700446  0.28867144    -0.72900
O83         O  0.63946810  0.84121890  0.29594294    -0.72800
O84         O  0.69731125  0.84671364  0.17951700    -0.72800
O85         O  0.69616281  0.84983896  0.29752019    -0.72800
O86         O  0.64054077  0.83608168  0.17964397    -0.72800
Ni87       Ni  0.66020108  0.89066217  0.23182544     1.25400
Ni88       Ni  0.66875324  0.84173304  0.23830460     1.25400
C89         C  0.62692879  0.85654358  0.15820767     0.89400
C90         C  0.70100439  0.87483666  0.31458555     0.89400
C91         C  0.70203154  0.87095622  0.15829053     0.89400
C92         C  0.62638397  0.86361472  0.31076238     0.89600
C93         C  0.26861897  0.88389066  0.99136821     0.88200
C94         C  0.28956964  0.88290185  0.04197036    -0.52100
C95         C  0.30426314  0.85859402  0.04575001     0.11100
C96         C  0.29690093  0.83718351  0.99720443     0.22100
C97         C  0.28239906  0.87791642  0.42861698    -0.52800
C98         C  0.29733524  0.85356338  0.42790105     0.11200
C99         C  0.25020050  0.85799530  0.99850129    -0.52300
C100        C  0.26470611  0.83339631  0.00101261     0.11800
H101        H  0.29243038  0.89949987  0.07346428     0.16300
H102        H  0.30888858  0.81739201  0.99918590     0.02000
H103        H  0.28356126  0.89307597  0.39425076     0.16600
H104        H  0.22734193  0.85897255  0.99850790     0.16400
O105        O  0.41970010  0.84388171  0.30662416    -0.72700
O106        O  0.36330364  0.85087868  0.18759975    -0.72800
O107        O  0.36256131  0.84663263  0.30425919    -0.72800
O108        O  0.41998297  0.85004569  0.19169555    -0.72900
O109        O  0.41974112  0.80377668  0.18213657    -0.72800
O110        O  0.36012366  0.80042910  0.29633442    -0.72800
O111        O  0.36222032  0.80462476  0.17826067    -0.72800
O112        O  0.41745912  0.79760039  0.29832360    -0.72800
Ni113      Ni  0.39133050  0.84941632  0.24803717     1.25400
Ni114      Ni  0.38971658  0.79989512  0.23839765     1.25400
C115        C  0.42836700  0.81950031  0.32083481     0.89400
C116        C  0.35403183  0.82872091  0.16225170     0.89400
C117        C  0.35182822  0.82344435  0.31958017     0.89400
C118        C  0.42969774  0.82787627  0.16881984     0.89600
O119        O  0.56071883  0.80006870  0.04200598    -0.72700
O120        O  0.50338635  0.81536817  0.43639801    -0.72800
O121        O  0.56090032  0.81886797  0.43746935    -0.72800
O122        O  0.50321081  0.79422551  0.04179355    -0.72900
O123        O  0.49835591  0.84032064  0.04839408    -0.72800
O124        O  0.55866551  0.86520960  0.43260245    -0.72800
O125        O  0.50194309  0.86164727  0.42869842    -0.72800
O126        O  0.55554937  0.84608944  0.04933969    -0.72800
Ni127      Ni  0.53113105  0.79731212  0.98358356     1.25400
Ni128      Ni  0.52725506  0.84675371  0.99144671     1.25400
C129        C  0.56837410  0.82380012  0.06333252     0.89400
C130        C  0.49301888  0.83760340  0.41391406     0.89400
C131        C  0.56954511  0.84182580  0.41694231     0.89400
C132        C  0.49106411  0.81556133  0.06328543     0.89600
C133        C  0.79055857  0.14395868  0.52048345     0.88200
C134        C  0.77317577  0.15194501  0.06744475    -0.52100
C135        C  0.75820654  0.17638930  0.06613546     0.11100
C136        C  0.76199144  0.19043742  0.51804140     0.22100
C137        C  0.77098977  0.14649794  0.46769354    -0.52800
C138        C  0.75571391  0.17065385  0.46649701     0.11200
C139        C  0.81020800  0.17244368  0.01084067    -0.52300
C140        C  0.79424470  0.19471055  0.51827460     0.11800
H141        H  0.77245012  0.13740960  0.10290988     0.16300
H142        H  0.74980206  0.21015443  0.51699635     0.02000
H143        H  0.76987155  0.13097653  0.43356703     0.16600
H144        H  0.83301558  0.17103110  0.00915958     0.16400
O145        O  0.63190897  0.15408934  0.31586786    -0.72700
O146        O  0.68820834  0.14871619  0.20130270    -0.72800
O147        O  0.68789621  0.14383611  0.31710064    -0.72800
O148        O  0.63234905  0.16028242  0.20111125    -0.72900
O149        O  0.64215303  0.20559944  0.20994874    -0.72800
O150        O  0.69633773  0.18931458  0.32800537    -0.72800
O151        O  0.69834275  0.19394403  0.21040415    -0.72800
O152        O  0.63955415  0.19977902  0.32538093    -0.72800
Ni153      Ni  0.65984865  0.15017890  0.25841858     1.25400
Ni154      Ni  0.66954872  0.19882196  0.26889574     1.25400
C155        C  0.62572938  0.17763172  0.33829294     0.89400
C156        C  0.70255590  0.16997804  0.18668393     0.89400
C157        C  0.70107760  0.16400404  0.34208729     0.89400
C158        C  0.62769456  0.18575571  0.18751300     0.89600
C159        C  0.26133831  0.13144164  0.00127741     0.88200
C160        C  0.27751426  0.13753238  0.45154162    -0.52100
C161        C  0.29051612  0.16310253  0.45332810     0.11100
C162        C  0.28664493  0.17991159  0.00595138     0.22100
C163        C  0.28165845  0.13477638  0.05268729    -0.52800
C164        C  0.29530667  0.16000261  0.05540539     0.11200
C165        C  0.24132494  0.15606179  0.00724832    -0.52300
C166        C  0.25405003  0.18151826  0.00936833     0.11800
H167        H  0.27911677  0.12302663  0.41556934     0.16300
H168        H  0.29737773  0.20047868  0.00806892     0.02000
H169        H  0.28402544  0.11902774  0.08536390     0.16600
H170        H  0.21863310  0.15350387  0.01035714     0.16400
O171        O  0.36090527  0.13456945  0.31980812    -0.72700
O172        O  0.41797187  0.13797155  0.20701005    -0.72800
O173        O  0.41735636  0.14166208  0.32250203    -0.72800
O174        O  0.36166835  0.13171596  0.20365643    -0.77700
O175        O  0.35584760  0.17771481  0.19831704    -0.72800
O176        O  0.41177052  0.18774149  0.31857131    -0.72800
O177        O  0.41305707  0.18414149  0.20259801    -0.72800
O178        O  0.35435088  0.18053733  0.31673048    -0.72800
Ni179      Ni  0.38957043  0.13494392  0.26350234     1.25400
Ni180      Ni  0.38343199  0.18427250  0.25891792     1.25400
C181        C  0.34824360  0.15649424  0.33714627     0.89400
C182        C  0.42536680  0.16149416  0.18705929     0.89400
C183        C  0.42436189  0.16630739  0.33886887     0.89400
C184        C  0.34990280  0.15294496  0.18070719     0.89600
O185        O  0.55222364  0.22137149  0.45373468    -0.72700
O186        O  0.49793591  0.20756226  0.07969143    -0.72800
O187        O  0.55529640  0.20363880  0.07533770    -0.72800
O188        O  0.49437504  0.21828599  0.45292984    -0.72900
O189        O  0.49670360  0.17192108  0.44997737    -0.72800
O190        O  0.55096028  0.15750156  0.06607782    -0.72800
O191        O  0.49419125  0.16147992  0.06847913    -0.72800
O192        O  0.55423453  0.17500067  0.45005912    -0.72800
Ni193      Ni  0.52520028  0.21015816  0.02012087     1.25400
Ni194      Ni  0.52221248  0.16067643  0.00946815     1.25400
C195        C  0.56334403  0.19892805  0.43433881     0.89400
C196        C  0.48650005  0.18437627  0.09260129     0.89400
C197        C  0.56306131  0.17879046  0.08833093     0.89400
C198        C  0.48532469  0.19471188  0.43368156     0.89600
C199        C  0.15094747  0.78186506  0.99777934     0.88200
C200        C  0.15194718  0.76138811  0.44485023    -0.52100
C201        C  0.17724840  0.74757056  0.44480926     0.11100
C202        C  0.19896814  0.75543766  0.00393848     0.22100
C203        C  0.15202308  0.76000769  0.04535053    -0.52800
C204        C  0.17724881  0.74606404  0.04905104     0.11200
C205        C  0.17623359  0.80068840  0.01030145    -0.52300
C206        C  0.20134371  0.78727798  0.01360532     0.11800
H207        H  0.13695057  0.76052820  0.40931696     0.16300
H208        H  0.21937316  0.74425936  0.00692116     0.02000
H209        H  0.13460247  0.75687606  0.07443514     0.16600
H210        H  0.17441308  0.82303869  0.01744962     0.16400
O211        O  0.15600790  0.62201480  0.18739772    -0.72700
O212        O  0.14867028  0.67854571  0.30333150    -0.72800
O213        O  0.14751455  0.67764265  0.18718730    -0.72800
O214        O  0.15715098  0.62292807  0.30319184    -0.72900
O215        O  0.20371236  0.62922891  0.30321933    -0.72800
O216        O  0.19388189  0.68504929  0.18589053    -0.72800
O217        O  0.19504912  0.68586045  0.30420611    -0.72800
O218        O  0.20249742  0.62862938  0.18663850    -0.72800
Ni219      Ni  0.15079682  0.65009031  0.24534814     1.25400
Ni220      Ni  0.20053518  0.65755027  0.24495530     1.25400
C221        C  0.18039665  0.61560628  0.16861858     0.89400
C222        C  0.17033868  0.69150636  0.32306224     0.89400
C223        C  0.16892290  0.69031483  0.16716478     0.89400
C224        C  0.18176732  0.61655611  0.32142226     0.89600
C225        C  0.15760267  0.25722357  0.48457007     0.88200
C226        C  0.16563230  0.27647317  0.03963512    -0.52100
C227        C  0.19186331  0.28866598  0.03853965     0.11100
C228        C  0.20804476  0.27921697  0.48810638     0.22100
C229        C  0.16418436  0.27532939  0.43275623    -0.52800
C230        C  0.19032997  0.28740997  0.43440784     0.11200
C231        C  0.18369006  0.23601043  0.98888703    -0.52300
C232        C  0.20801809  0.24696873  0.48918652     0.11800
H233        H  0.15103495  0.27979631  0.07455121     0.16300
H234        H  0.22941735  0.28864752  0.48949802     0.02000
H235        H  0.14912411  0.27823041  0.39788922     0.16600
H236        H  0.18011483  0.21364227  0.98908125     0.16400
O237        O  0.18573010  0.41346150  0.29819916    -0.72700
O238        O  0.17238738  0.36052749  0.17819509    -0.72800
O239        O  0.17021849  0.35919377  0.29432166    -0.72800
O240        O  0.18890792  0.41454934  0.18318767    -0.72900
O241        O  0.23388750  0.40146315  0.18664566    -0.72800
O242        O  0.21523594  0.34626359  0.29933249    -0.72800
O243        O  0.21719397  0.34679385  0.18115345    -0.72800
O244        O  0.23091123  0.40121014  0.30314088    -0.72800
Ni245      Ni  0.17779037  0.38728962  0.23828760     1.25400
Ni246      Ni  0.22597313  0.37335261  0.24272086     1.25400
C247        C  0.21042887  0.41677371  0.31950309     0.89400
C248        C  0.19216431  0.34495868  0.15968761     0.89400
C249        C  0.18964148  0.34378082  0.31558228     0.89400
C250        C  0.21457380  0.41760692  0.16764120     0.89600
O251        O  0.22095359  0.48755816  0.43848841    -0.72700
O252        O  0.23237991  0.54710243  0.05691141    -0.72800
O253        O  0.23195022  0.48983926  0.05584556    -0.72800
O254        O  0.22717717  0.54459937  0.43933473    -0.72900
O255        O  0.18050377  0.54887619  0.43545145    -0.72800
O256        O  0.18522718  0.49124876  0.04546472    -0.72800
O257        O  0.18574476  0.54764487  0.04498053    -0.72800
O258        O  0.17431499  0.49270606  0.43428337    -0.72800
Ni259      Ni  0.23703032  0.51874249  0.99888897     1.25400
Ni260      Ni  0.18702145  0.51859382  0.98735892     1.25400
C261        C  0.19682417  0.48030839  0.41818361     0.89400
C262        C  0.20822540  0.55721666  0.06918188     0.89400
C263        C  0.20723156  0.48105117  0.06891207     0.89400
C264        C  0.20499162  0.55657117  0.41956191     0.89600
N265        N  0.18066952  0.96395928  0.00492127    -0.34900
N266        N  0.13675347  0.00583386  0.01279160    -0.55500
N267        N  0.17957348  0.04845457  0.02162527    -0.34900
N268        N  0.22376224  0.00648587  0.02041771    -0.55500
C269        C  0.15749680  0.94793388  0.01204239     0.28700
C270        C  0.20320150  0.94831750  0.02008843     0.28700
C271        C  0.15671404  0.06282674  0.03959496     0.28700
C272        C  0.20246925  0.06339003  0.03821201     0.28700
C273        C  0.12027501  0.98359689  0.99994131     0.37300
C274        C  0.11956794  0.02825412  0.01448665     0.37300
C275        C  0.24059072  0.98424747  0.01081429     0.37300
C276        C  0.24003023  0.02945449  0.01478860     0.37300
C277        C  0.16534474  0.92193573  0.03198775    -0.20200
C278        C  0.19406237  0.92236474  0.03815442    -0.20200
C279        C  0.16526194  0.08671986  0.06890413    -0.20200
C280        C  0.19410006  0.08719165  0.06772217    -0.20200
C281        C  0.09241436  0.99184259  0.99561293    -0.21300
C282        C  0.09196207  0.02011424  0.00410785    -0.21200
C283        C  0.26779485  0.99311747  0.99984448    -0.21300
C284        C  0.26740700  0.02179271  0.00207113    -0.21200
C285        C  0.12961158  0.95565278  0.99822085    -0.16600
C286        C  0.23184866  0.95610975  0.01431597    -0.16600
C287        C  0.23068289  0.05704986  0.02434764    -0.16600
C288        C  0.12829256  0.05571789  0.02798312    -0.16600
H289        H  0.15188817  0.90444431  0.04179184     0.16300
H290        H  0.20670786  0.90527414  0.05384920     0.16300
H291        H  0.15207699  0.10214455  0.08943902     0.16300
H292        H  0.20741018  0.10322184  0.08670999     0.16300
H293        H  0.07408148  0.97878526  0.99024220     0.14600
H294        H  0.07325309  0.03291778  0.00423525     0.14600
H295        H  0.28600471  0.98030339  0.99106838     0.14600
H296        H  0.28529822  0.03537433  0.99570433     0.14600
H297        H  0.18122194  0.98309666  0.98430251     0.27900
H298        H  0.17963177  0.03141753  0.99357660     0.27900
N299        N  0.03452687  0.21745432  0.01752748    -0.34900
N300        N  0.07837955  0.17444835  0.01283293    -0.55500
N301        N  0.03605830  0.13200176  0.00526908    -0.34900
N302        N  0.99187622  0.17451968  0.00083936    -0.55500
C303        C  0.05775411  0.23351136  0.01080340     0.28700
C304        C  0.01163163  0.23336896  0.00577734     0.28700
C305        C  0.05919305  0.11728448  0.99081030     0.28700
C306        C  0.01357859  0.11760092  0.98510030     0.28700
C307        C  0.09396745  0.19680680  0.02881668     0.37300
C308        C  0.09475092  0.15182814  0.02188158     0.37300
C309        C  0.97551629  0.19629706  0.01620264     0.37300
C310        C  0.97663251  0.15131476  0.01114475     0.37300
C311        C  0.04950922  0.26014873  0.99538207    -0.20200
C312        C  0.02043155  0.26007499  0.99235450    -0.20200
C313        C  0.05134507  0.09347734  0.96037897    -0.20200
C314        C  0.02244199  0.09371522  0.95674025    -0.20200
C315        C  0.12023933  0.18822934  0.04853781    -0.21300
C316        C  0.12080410  0.15978904  0.04358953    -0.21200
C317        C  0.94987812  0.18675719  0.03647951    -0.21300
C318        C  0.95047760  0.15824467  0.03265925    -0.21200
C319        C  0.08603196  0.22492774  0.02025163    -0.16600
C320        C  0.98309471  0.22465155  0.00988089    -0.16600
C321        C  0.98551262  0.12409337  0.99787798    -0.16600
C322        C  0.08697023  0.12429528  0.00726605    -0.16600
H323        H  0.06301516  0.27785429  0.98739140     0.16300
H324        H  0.00728601  0.27769937  0.98158993     0.16300
H325        H  0.06499233  0.07764970  0.94249831     0.16300
H326        H  0.00951619  0.07832153  0.93489389     0.16300
H327        H  0.13746937  0.20113366  0.06407151     0.14600
H328        H  0.13849047  0.14661743  0.05422182     0.14600
H329        H  0.93267474  0.19896073  0.05330808     0.14600
H330        H  0.93366567  0.14423454  0.04456080     0.14600
H331        H  0.03424878  0.19751413  0.03448057     0.27900
H332        H  0.03533183  0.14884152  0.03385459     0.27900
N333        N  0.06509530  0.85913468  0.95050846    -0.34900
N334        N  0.02088411  0.90053781  0.94127118    -0.55500
N335        N  0.97960448  0.85758464  0.96351414    -0.34900
N336        N  0.02385126  0.81507922  0.96387492    -0.55500
C337        C  0.07970440  0.88115756  0.93041377     0.28700
C338        C  0.08110457  0.83625031  0.94165195     0.28700
C339        C  0.96234592  0.87913995  0.95066774     0.28700
C340        C  0.96387429  0.83407808  0.96107742     0.28700
C341        C  0.04307847  0.91772447  0.93414187     0.37300
C342        C  0.99787115  0.91695753  0.94193976     0.37300
C343        C  0.04745690  0.79996113  0.97370318     0.37300
C344        C  0.00176903  0.79894944  0.97906044     0.37300
C345        C  0.10505151  0.87231574  0.90796591    -0.20200
C346        C  0.10570907  0.84389577  0.91390464    -0.20200
C347        C  0.93532362  0.86927778  0.94039129    -0.20200
C348        C  0.93639202  0.84089362  0.94577577    -0.20200
C349        C  0.03405259  0.94486290  0.92691035    -0.21300
C350        C  0.00538964  0.94432330  0.93124812    -0.21200
C351        C  0.04027026  0.77391710  0.99431276    -0.21300
C352        C  0.01135559  0.77322908  0.99739382    -0.21200
C353        C  0.07137118  0.90926044  0.93352899    -0.16600
C354        C  0.07526358  0.80915087  0.96257408    -0.16600
C355        C  0.97305591  0.80684667  0.97555801    -0.16600
C356        C  0.96999122  0.90757802  0.94981591    -0.16600
H357        H  0.12121882  0.88504464  0.88876266     0.16300
H358        H  0.12269091  0.83046048  0.90019835     0.16300
H359        H  0.91673968  0.88111971  0.92924344     0.16300
H360        H  0.91873153  0.82694357  0.93910649     0.16300
H361        H  0.04654946  0.96295277  0.91672016     0.14600
H362        H  0.99162553  0.96189850  0.92465925     0.14600
H363        H  0.05429496  0.75711080  0.00593141     0.14600
H364        H  0.99884894  0.75584637  0.01199180     0.14600
H365        H  0.04729692  0.86024471  0.97617526     0.27900
H366        H  0.00000759  0.85915250  0.97972513     0.27900
N367        N  0.87651559  0.06393047  0.98382967    -0.34900
N368        N  0.83272514  0.02261447  0.00385492    -0.55500
N369        N  0.87603766  0.97961352  0.00249120    -0.34900
N370        N  0.91953865  0.02094076  0.98488188    -0.55500
C371        C  0.85328375  0.07960800  0.97426247     0.28700
C372        C  0.89879201  0.07829079  0.96307938     0.28700
C373        C  0.85389607  0.96489404  0.02231625     0.28700
C374        C  0.89926538  0.96383079  0.01150392     0.28700
C375        C  0.81598719  0.04539863  0.00157159     0.37300
C376        C  0.81573557  0.00027049  0.01164959     0.37300
C377        C  0.93659518  0.04328370  0.98006606     0.37300
C378        C  0.93651239  0.99864959  0.99113754     0.37300
C379        C  0.86099250  0.10402200  0.94683260    -0.20200
C380        C  0.88961306  0.10327317  0.94019279    -0.20200
C381        C  0.86339956  0.93989301  0.04503537    -0.20200
C382        C  0.89187501  0.93904216  0.03733084    -0.20200
C383        C  0.78815210  0.03746735  0.00872844    -0.21300
C384        C  0.78797031  0.00890283  0.01434862    -0.21200
C385        C  0.96450085  0.03508128  0.98387939    -0.21300
C386        C  0.96446291  0.00685629  0.99075743    -0.21200
C387        C  0.82525027  0.07297659  0.99014414    -0.16600
C388        C  0.92741303  0.07057102  0.96786606    -0.16600
C389        C  0.92725000  0.97107221  0.99853092    -0.16600
C390        C  0.82506437  0.97236379  0.01800930    -0.16600
H391        H  0.84742119  0.12073144  0.93262160     0.16300
H392        H  0.90217745  0.11944718  0.92083603     0.16300
H393        H  0.85109783  0.92384888  0.06548420     0.16300
H394        H  0.90569138  0.92235715  0.05073093     0.16300
H395        H  0.76976636  0.05073292  0.00873302     0.14600
H396        H  0.76951042  0.99606064  0.02042118     0.14600
H397        H  0.98310661  0.04785496  0.98207550     0.14600
H398        H  0.98299136  0.99415412  0.99672447     0.14600
H399        H  0.87749491  0.04610547  0.00879549     0.27900
H400        H  0.87496274  0.99778253  0.97862600     0.27900
C401        C  0.94730945  0.92868745  0.95533134    -0.14700
C402        C  0.94856772  0.94860839  0.99638628    -0.29900
H403        H  0.93123638  0.92723836  0.43715405     0.14300
H404        H  0.96649431  0.94960397  0.02579369     0.14900
C405        C  0.94888708  0.09259729  0.95926894    -0.14700
C406        C  0.96531343  0.10092351  0.00331475    -0.29900
H407        H  0.94745588  0.10290730  0.43492586     0.14300
H408        H  0.96358195  0.09097819  0.04499081     0.14900
C409        C  0.10633359  0.07784679  0.03190970    -0.14700
C410        C  0.10925311  0.10256029  0.00563620    -0.29900
H411        H  0.08683181  0.07326972  0.05400964     0.14300
H412        H  0.12961017  0.10879434  0.49608321     0.14900
C413        C  0.10880874  0.93294830  0.98766244    -0.14700
C414        C  0.09349726  0.93098843  0.93877364    -0.29900
H415        H  0.10620281  0.91721759  0.02053664     0.14300
H416        H  0.11048573  0.92361608  0.42650680     0.14900
C417        C  0.21511233  0.43944151  0.36246212    -0.14700
C418        C  0.19413060  0.45721505  0.37599676    -0.29900
H419        H  0.23581865  0.44187685  0.38215724     0.14300
H420        H  0.17345235  0.45437256  0.35634682     0.14900
C421        C  0.20259608  0.45883768  0.11108432    -0.14700
C422        C  0.22208903  0.44035555  0.12788586    -0.29900
H423        H  0.18115108  0.45666605  0.12636246     0.14300
H424        H  0.24352472  0.44188267  0.11232112     0.14900
C425        C  0.13127519  0.24214191  0.98461837    -0.14700
C426        C  0.10914960  0.24605197  0.01970940    -0.29900
H427        H  0.12823243  0.22539919  0.44857056     0.14300
H428        H  0.10839437  0.26338739  0.04988583     0.14900
C429        C  0.20000061  0.30777501  0.39043451    -0.14700
C430        C  0.18157688  0.32297115  0.35910329    -0.29900
H431        H  0.22246352  0.31117651  0.38580772     0.14300
H432        H  0.15917548  0.32093908  0.36674186     0.14900
C433        C  0.20236907  0.30872188  0.08358147    -0.14700
C434        C  0.18439413  0.32467353  0.11377654    -0.29900
H435        H  0.22490868  0.31104921  0.09024901     0.14300
H436        H  0.16207441  0.32351052  0.10347982     0.14900
C437        C  0.18233194  0.59255571  0.12605550    -0.14700
C438        C  0.20679768  0.58057926  0.11123745    -0.29900
H439        H  0.16272696  0.58456160  0.10783516     0.14300
H440        H  0.22639683  0.58817769  0.13019436     0.14900
C441        C  0.18352179  0.59396614  0.36365446    -0.14700
C442        C  0.20704497  0.58004573  0.37868438    -0.29900
H443        H  0.16344024  0.58759328  0.38135270     0.14300
H444        H  0.22735095  0.58587309  0.36133847     0.14900
C445        C  0.09944610  0.78951004  0.97184402    -0.14700
C446        C  0.12393183  0.79859358  0.99531197    -0.29900
H447        H  0.09114542  0.76126812  0.47174560     0.14300
H448        H  0.12504393  0.82008022  0.01043622     0.14900
C449        C  0.18387442  0.72467247  0.09331694    -0.14700
C450        C  0.16361776  0.71129937  0.12228817    -0.29900
H451        H  0.20581581  0.71952716  0.10121649     0.14300
H452        H  0.14167018  0.71529587  0.11215080     0.14900
C453        C  0.18524569  0.72706732  0.39863434    -0.14700
C454        C  0.16533455  0.71318193  0.36777418    -0.29900
H455        H  0.20732212  0.72209598  0.39279733     0.14300
H456        H  0.14332695  0.71694776  0.37715701     0.14900
C457        C  0.46352876  0.18464376  0.13468999    -0.14700
C458        C  0.44863722  0.16167934  0.14591334    -0.29900
H459        H  0.45826122  0.20427412  0.15563815     0.14300
H460        H  0.45431983  0.14194269  0.12588033     0.14900
C461        C  0.44785971  0.16928984  0.38073625    -0.14700
C462        C  0.46098679  0.19360332  0.39312440    -0.29900
H463        H  0.45547234  0.15021562  0.40026452     0.14300
H464        H  0.45355317  0.21284576  0.37406737     0.14900
C465        C  0.24531198  0.10419161  0.99568539    -0.14700
C466        C  0.25135943  0.08049455  0.02400640    -0.29900
H467        H  0.22730790  0.10225144  0.47205011     0.14300
H468        H  0.27094015  0.07824188  0.04782741     0.14900
C469        C  0.23615268  0.20633335  0.02042540    -0.14700
C470        C  0.23596833  0.22985307  0.98913837    -0.29900
H471        H  0.21851617  0.20270188  0.04893814     0.14300
H472        H  0.25234180  0.23438301  0.46888349     0.14900
C473        C  0.31625955  0.16740985  0.10185952    -0.14700
C474        C  0.32931537  0.14766280  0.13348001    -0.29900
H475        H  0.32135503  0.18922828  0.10913214     0.14300
H476        H  0.32549009  0.12584991  0.12369858     0.14900
C477        C  0.31154233  0.17174387  0.40927357    -0.14700
C478        C  0.32641833  0.15213693  0.38094415    -0.29900
H479        H  0.31584610  0.19369994  0.40276003     0.14300
H480        H  0.32327425  0.13042130  0.39178344     0.14900
C481        C  0.60195707  0.17794138  0.37889503    -0.14700
C482        C  0.58757817  0.20081421  0.39459768    -0.29900
H483        H  0.59503075  0.15774951  0.39419814     0.14300
H484        H  0.59396806  0.22112359  0.37908110     0.14900
C485        C  0.60483602  0.19274651  0.14668433    -0.14700
C486        C  0.58629683  0.17338748  0.12897052    -0.29900
H487        H  0.60273341  0.21413904  0.13241668     0.14300
H488        H  0.58871417  0.15203257  0.14335812     0.14900
C489        C  0.80871152  0.12005253  0.01905874    -0.14700
C490        C  0.80409255  0.09609464  0.98923344    -0.29900
H491        H  0.82679788  0.12095040  0.04812766     0.14300
H492        H  0.78328641  0.09045411  0.47282398     0.14900
C493        C  0.72206704  0.15756651  0.38751817    -0.14700
C494        C  0.73472998  0.17733684  0.42053738    -0.29900
H495        H  0.72656758  0.13571818  0.39469942     0.14300
H496        H  0.72883320  0.19902283  0.41544441     0.14900
C497        C  0.73759724  0.18461453  0.11161614    -0.14700
C498        C  0.72424108  0.16506186  0.14242521    -0.29900
H499        H  0.73224791  0.20644196  0.11722817     0.14300
H500        H  0.72816327  0.14326351  0.13262236     0.14900
C501        C  0.45186830  0.81638842  0.36247364    -0.14700
C502        C  0.47016912  0.83727841  0.37070838    -0.29900
H503        H  0.45459529  0.79682690  0.38497251     0.14300
H504        H  0.46706046  0.85651435  0.34712005     0.14900
C505        C  0.45272439  0.83157221  0.12691468    -0.14700
C506        C  0.46808393  0.81072231  0.10500553    -0.29900
H507        H  0.45766380  0.85282254  0.11473057     0.14300
H508        H  0.46346445  0.78941470  0.11722734     0.14900
C509        C  0.25374016  0.93377124  0.01603863    -0.14700
C510        C  0.25096168  0.91005927  0.98461366    -0.29900
H511        H  0.27176655  0.93711001  0.04414255     0.14300
H512        H  0.22987983  0.90864719  0.44655601     0.14900
C513        C  0.24959057  0.80616212  0.00053864    -0.14700
C514        C  0.22638108  0.80346221  0.03252247    -0.29900
H515        H  0.24940575  0.78899800  0.45501555     0.14300
H516        H  0.22240762  0.81945288  0.06498780     0.14900
C517        C  0.31783828  0.84847816  0.38056220    -0.14700
C518        C  0.32993477  0.82399977  0.36553410    -0.29900
H519        H  0.32319008  0.86681410  0.35578182     0.14300
H520        H  0.32412543  0.80486417  0.38695355     0.14900
C521        C  0.32517144  0.85521001  0.09315901    -0.14700
C522        C  0.33389376  0.83056772  0.11321713    -0.29900
H523        H  0.33260577  0.87414325  0.11448569     0.14300
H524        H  0.32607866  0.81136511  0.09376228     0.14900
C525        C  0.60383926  0.85159762  0.11632061    -0.14700
C526        C  0.59273077  0.82626070  0.10358673    -0.29900
H527        H  0.59484431  0.87007584  0.09677632     0.14300
H528        H  0.60164278  0.80754106  0.12221546     0.14900
C529        C  0.60377492  0.86373444  0.35345168    -0.14700
C530        C  0.59262970  0.84062921  0.37511116    -0.29900
H531        H  0.59545318  0.88391624  0.36631312     0.14300
H532        H  0.60066284  0.82035273  0.36216306     0.14900
C533        C  0.80762993  0.92596304  0.98925723    -0.14700
C534        C  0.80409243  0.94906832  0.02218725    -0.29900
H535        H  0.81887675  0.92677404  0.45396113     0.14300
H536        H  0.78754752  0.95040728  0.05387139     0.14900
C537        C  0.72324058  0.87633505  0.11389654    -0.14700
C538        C  0.74082081  0.85767915  0.09052983    -0.29900
H539        H  0.72410001  0.89775270  0.09936228     0.14300
H540        H  0.73924920  0.83580066  0.10150331     0.14900
C541        C  0.73473408  0.86072750  0.39282498    -0.14700
C542        C  0.72138973  0.88055991  0.36172727    -0.29900
H543        H  0.72996394  0.83888212  0.38497216     0.14300
H544        H  0.72474093  0.90240909  0.37178763     0.14900
C545        C  0.85246505  0.43491322  0.14354445    -0.14700
C546        C  0.83035090  0.45121848  0.13254424    -0.29900
H547        H  0.87218402  0.43889106  0.12166454     0.14300
H548        H  0.81053257  0.44768030  0.15430975     0.14900
C549        C  0.83187093  0.45091315  0.39800147    -0.14700
C550        C  0.85558188  0.43771542  0.38103464    -0.29900
H551        H  0.81132916  0.44391338  0.38275513     0.14300
H552        H  0.87599621  0.44498326  0.39652670     0.14900
C553        C  0.96035361  0.24620746  0.01281426    -0.14700
C554        C  0.93563942  0.24332798  0.98357469    -0.29900
H555        H  0.96386299  0.26340892  0.04244948     0.14300
H556        H  0.92984956  0.21927007  0.45574368     0.14900
C557        C  0.83619000  0.22747796  0.03871290    -0.14700
C558        C  0.81172481  0.22453922  0.00908373    -0.29900
H559        H  0.84237646  0.21085003  0.06763330     0.14300
H560        H  0.80252114  0.23683495  0.48218773     0.14900
C561        C  0.85733848  0.31722776  0.13814442    -0.14700
C562        C  0.88121795  0.30834389  0.11398307    -0.29900
H563        H  0.83714922  0.30924017  0.12315990     0.14300
H564        H  0.90113928  0.31612136  0.13120393     0.14900
C565        C  0.85483844  0.30251598  0.41771189    -0.14700
C566        C  0.87200860  0.31738650  0.38390565    -0.29900
H567        H  0.83235849  0.30649555  0.41796314     0.14300
H568        H  0.89456158  0.31434471  0.38863882     0.14900
C569        C  0.85722609  0.58840813  0.37612736    -0.14700
C570        C  0.83522788  0.57456389  0.39738733    -0.29900
H571        H  0.87847601  0.58179321  0.38695369     0.14300
H572        H  0.81405865  0.58109429  0.38560921     0.14900
C573        C  0.82635728  0.59150168  0.14794276    -0.14700
C574        C  0.84547816  0.57285787  0.13039512    -0.29900
H575        H  0.80451414  0.58948854  0.13422137     0.14300
H576        H  0.86713262  0.57507779  0.14542090     0.14900
C577        C  0.82438422  0.79863166  0.01118072    -0.14700
C578        C  0.82442866  0.82593873  0.02620695    -0.29900
H579        H  0.79802525  0.79477346  0.53443404     0.14300
H580        H  0.84222459  0.83364315  0.05146771     0.14900
C581        C  0.95100697  0.78511541  0.98413095    -0.14700
C582        C  0.92951128  0.78953017  0.02067223    -0.29900
H583        H  0.94523198  0.76438751  0.46594318     0.14300
H584        H  0.93088596  0.80736820  0.04984964     0.14900
C585        C  0.85279733  0.72002413  0.42233873    -0.14700
C586        C  0.87083427  0.70735932  0.38583337    -0.29900
H587        H  0.83052375  0.71497404  0.41975719     0.14300
H588        H  0.89323970  0.71132688  0.38948743     0.14900
C589        C  0.86805343  0.72240760  0.12306769    -0.14700
C590        C  0.84369090  0.71193376  0.14308913    -0.29900
H591        H  0.88757537  0.71511922  0.14254296     0.14300
H592        H  0.82359342  0.71969578  0.12751816     0.14900
C593        C  0.89271208  0.77332900  0.51994381     0.88200
C594        C  0.88604157  0.75661416  0.57387368    -0.52100
C595        C  0.86013511  0.74379927  0.57295644     0.11100
C596        C  0.84284106  0.75001197  0.51767474     0.22100
C597        C  0.89618814  0.75323518  0.97038662    -0.52800
C598        C  0.87065469  0.73999274  0.97243921     0.11200
C599        C  0.86834940  0.79395138  0.51458083    -0.52300
C600        C  0.84210700  0.78213301  0.51294243     0.11800
H601        H  0.90090437  0.75523244  0.60949999     0.16300
H602        H  0.82168017  0.74011321  0.51669033     0.02000
H603        H  0.91064606  0.75017424  0.93524334     0.16600
H604        H  0.87174443  0.81632937  0.51327785     0.16400
O605        O  0.88014767  0.61653810  0.81910471    -0.72700
O606        O  0.88495662  0.67317821  0.70718139    -0.72800
O607        O  0.89162936  0.67156589  0.82267183    -0.72800
O608        O  0.87141053  0.61817443  0.70460820    -0.72900
O609        O  0.82617886  0.62925984  0.71531734    -0.72800
O610        O  0.84615650  0.68099952  0.83552937    -0.72800
O611        O  0.83983023  0.68460000  0.71802491    -0.72800
O612        O  0.83438565  0.62504789  0.83055238    -0.72800
Ni613      Ni  0.88356751  0.64459016  0.76283355     1.25400
Ni614      Ni  0.83495267  0.65542842  0.77536451     1.25400
C615        C  0.85671123  0.61086929  0.84241908     0.89400
C616        C  0.86387940  0.68833897  0.69403352     0.89400
C617        C  0.87207451  0.68482108  0.84903901     0.89400
C618        C  0.84526325  0.61456199  0.69155765     0.89600
C619        C  0.90492135  0.25271246  0.49823902     0.88200
C620        C  0.89547360  0.27579715  0.95062385    -0.52100
C621        C  0.86971687  0.28733637  0.96327583     0.11100
C622        C  0.85645135  0.27651491  0.51991489     0.22100
C623        C  0.90609283  0.27396511  0.54809977    -0.52800
C624        C  0.88099799  0.28644699  0.56004021     0.11200
C625        C  0.88169329  0.23239707  0.51516927    -0.52300
C626        C  0.85627963  0.24439151  0.52594008     0.11800
H627        H  0.90683242  0.28016454  0.91137549     0.16300
H628        H  0.83586007  0.28646179  0.52861061     0.02000
H629        H  0.92485508  0.27865376  0.57329341     0.16600
H630        H  0.88504766  0.21006535  0.51832346     0.16400
O631        O  0.88013551  0.40342487  0.70822110    -0.72700
O632        O  0.87942139  0.34454390  0.81653656    -0.72800
O633        O  0.87982748  0.34714665  0.70030146    -0.72800
O634        O  0.87769876  0.40135855  0.82415547    -0.72900
O635        O  0.83077022  0.40064158  0.82077242    -0.72800
O636        O  0.83289828  0.34670099  0.69819031    -0.72800
O637        O  0.83247083  0.34332360  0.81550833    -0.72800
O638        O  0.83319862  0.40354375  0.70464559    -0.72800
Ni639      Ni  0.88087473  0.37411454  0.76265388     1.25400
Ni640      Ni  0.83061035  0.37347569  0.75980799     1.25400
C641        C  0.85713087  0.41339714  0.68875811     0.89400
C642        C  0.85633915  0.33373501  0.83297787     0.89400
C643        C  0.85645381  0.33817345  0.67859024     0.89400
C644        C  0.85378179  0.41062639  0.84127604     0.89600
O645        O  0.81099023  0.54051343  0.95642613    -0.72700
O646        O  0.81630403  0.48755697  0.57707698    -0.72800
O647        O  0.82230577  0.54424667  0.57610147    -0.72800
O648        O  0.80800758  0.48340231  0.95791479    -0.72900
O649        O  0.85481386  0.48163381  0.95368325    -0.72800
O650        O  0.86871268  0.53856538  0.56806607    -0.72800
O651        O  0.86264801  0.48226925  0.56725913    -0.72800
O652        O  0.85786538  0.53861935  0.95399756    -0.72800
Ni653      Ni  0.81461989  0.51517133  0.51900536     1.25400
Ni654      Ni  0.86446732  0.51124643  0.50957058     1.25400
C655        C  0.83440244  0.54945905  0.93742474     0.89400
C656        C  0.83915857  0.47520265  0.59034373     0.89400
C657        C  0.84775019  0.55089953  0.59042134     0.89400
C658        C  0.83069656  0.47235288  0.93812270     0.89600
C659        C  0.78900539  0.89719142  0.49251855     0.88200
C660        C  0.77726017  0.88957965  0.94177241    -0.52100
C661        C  0.76512267  0.86377363  0.94312765     0.11100
C662        C  0.76532025  0.84794289  0.48773744     0.22100
C663        C  0.77186671  0.89013944  0.54632967    -0.52800
C664        C  0.75908037  0.86430910  0.54402113     0.11200
C665        C  0.80979289  0.87315747  0.48651971    -0.52300
C666        C  0.79786752  0.84734277  0.48420210     0.11800
H667        H  0.77480348  0.90380026  0.90600556     0.16300
H668        H  0.75529017  0.82703887  0.48523334     0.02000
H669        H  0.77053287  0.90406005  0.58316764     0.16600
H670        H  0.83241489  0.87637091  0.48382537     0.16400
O671        O  0.63510467  0.87092678  0.68951000    -0.72700
O672        O  0.69225165  0.88762596  0.80373059    -0.72800
O673        O  0.69061452  0.88448154  0.68756910    -0.72800
O674        O  0.63651050  0.87648051  0.80505261    -0.72900
O675        O  0.64533714  0.83093156  0.80972348    -0.72800
O676        O  0.70254188  0.83964217  0.69165398    -0.72800
O677        O  0.70206260  0.84233112  0.80992240    -0.72800
O678        O  0.64669097  0.82598773  0.69383160    -0.72800
Ni679      Ni  0.66333554  0.88142625  0.74617551     1.25400
Ni680      Ni  0.67463097  0.83305995  0.75158984     1.25400
C681        C  0.63129257  0.84540013  0.67371989     0.89400
C682        C  0.70635422  0.86754136  0.82602203     0.89400
C683        C  0.70558559  0.86412111  0.67015092     0.89400
C684        C  0.63118382  0.85257158  0.82553096     0.89600
C685        C  0.26459298  0.88266126  0.48232111     0.88200
C686        C  0.28532018  0.88007510  0.53309865    -0.52100
C687        C  0.30052901  0.85579168  0.53344715     0.11100
C688        C  0.29282941  0.83574769  0.48247923     0.22100
C689        C  0.28604267  0.87751999  0.93800141    -0.52800
C690        C  0.30141266  0.85335237  0.94078488     0.11200
C691        C  0.24614531  0.85663715  0.48618391    -0.52300
C692        C  0.26046551  0.83191655  0.48648886     0.11800
H693        H  0.28703651  0.89554661  0.56707242     0.16300
H694        H  0.30479673  0.81591344  0.48275143     0.02000
H695        H  0.28574610  0.89115041  0.90099229     0.16600
H696        H  0.22330160  0.85774547  0.48710099     0.16400
O697        O  0.42304846  0.87601198  0.80066231    -0.72700
O698        O  0.36609319  0.88614098  0.68411375    -0.72800
O699        O  0.36663126  0.88226788  0.80002934    -0.72800
O700        O  0.42237477  0.88171770  0.68550090    -0.72900
O701        O  0.41858464  0.83551304  0.67648353    -0.72800
O702        O  0.36093629  0.83618684  0.79399830    -0.72800
O703        O  0.36128466  0.84006233  0.67538045    -0.72800
O704        O  0.41824597  0.82990057  0.79235499    -0.72800
Ni705      Ni  0.39461921  0.88305236  0.74300424     1.25400
Ni706      Ni  0.38947275  0.83365320  0.73423948     1.25400
C707        C  0.43044989  0.85126496  0.81472063     0.89400
C708        C  0.35473187  0.86475851  0.65965623     0.89400
C709        C  0.35468138  0.85998440  0.81649505     0.89400
C710        C  0.42999879  0.85883377  0.66254055     0.89600
O711        O  0.56180744  0.82485370  0.55358818    -0.72700
O712        O  0.50133420  0.79905833  0.92558097    -0.72800
O713        O  0.55888406  0.80258418  0.92596696    -0.72800
O714        O  0.50475375  0.81852189  0.55249176    -0.72900
O715        O  0.49913353  0.86445606  0.54414653    -0.72800
O716        O  0.55671324  0.84884675  0.93430191    -0.72800
O717        O  0.49916696  0.84531580  0.93283582    -0.72800
O718        O  0.55576503  0.87083330  0.54793888    -0.72800
Ni719      Ni  0.53289094  0.81768638  0.49521849     1.25400
Ni720      Ni  0.52875751  0.86715170  0.48812760     1.25400
C721        C  0.56818117  0.84990450  0.56962850     0.89400
C722        C  0.49025733  0.82242599  0.91086615     0.89400
C723        C  0.56790500  0.82671219  0.91273233     0.89400
C724        C  0.49209161  0.84095139  0.56608605     0.89600
C725        C  0.79137694  0.14663376  0.01443668     0.88200
C726        C  0.77166160  0.14830834  0.57262140    -0.52100
C727        C  0.75615315  0.17241562  0.57145883     0.11100
C728        C  0.76372091  0.19373453  0.01156244     0.22100
C729        C  0.77117734  0.14908096  0.96270297    -0.52800
C730        C  0.75617004  0.17343142  0.96128829     0.11200
C731        C  0.80890563  0.17020521  0.51907846    -0.52300
C732        C  0.79616536  0.19731022  0.01026759     0.11800
H733        H  0.77097333  0.13337784  0.60735941     0.16300
H734        H  0.75191796  0.21367624  0.01042617     0.02000
H735        H  0.76919148  0.13318674  0.92951113     0.16600
H736        H  0.83175731  0.16937712  0.51803754     0.16400
O737        O  0.62976600  0.14359141  0.81709088    -0.72700
O738        O  0.68797377  0.14114006  0.70661874    -0.72800
O739        O  0.68652009  0.13969393  0.82249300    -0.72800
O740        O  0.63133583  0.14612675  0.70162401    -0.72900
O741        O  0.63493447  0.19244435  0.70621664    -0.72800
O742        O  0.69082181  0.18594275  0.82678916    -0.72800
O743        O  0.69242311  0.18741616  0.70889758    -0.72800
O744        O  0.63317143  0.18992051  0.82237975    -0.72800
Ni745      Ni  0.65881762  0.14109509  0.76179334     1.25400
Ni746      Ni  0.66305045  0.19067836  0.76628736     1.25400
C747        C  0.62141860  0.16693214  0.83715603     0.89400
C748        C  0.69978986  0.16339008  0.68927929     0.89400
C749        C  0.69790420  0.16167213  0.84436681     0.89400
C750        C  0.62356661  0.17033257  0.68500147     0.89600
C751        C  0.26094130  0.13037327  0.50534238     0.88200
C752        C  0.27874786  0.13777817  0.94818459    -0.52100
C753        C  0.29281121  0.16274894  0.95049860     0.11100
C754        C  0.28408928  0.17999762  0.50879957     0.22100
C755        C  0.28166164  0.13461185  0.55578140    -0.52800
C756        C  0.29413689  0.16049543  0.55778657     0.11200
C757        C  0.23994843  0.15417615  0.51211573    -0.52300
C758        C  0.25151552  0.18020117  0.51332538     0.11800
H759        H  0.27994557  0.12323826  0.91220434     0.16300
H760        H  0.29396697  0.20098761  0.51037099     0.02000
H761        H  0.28540287  0.11886590  0.58801428     0.16600
H762        H  0.21739442  0.15065984  0.51533610     0.16400
O763        O  0.36260094  0.13436323  0.81316965    -0.72700
O764        O  0.42091024  0.14142661  0.70223722    -0.72800
O765        O  0.41873888  0.14230081  0.81800882    -0.72800
O766        O  0.36465077  0.13350980  0.69704747    -0.77700
O767        O  0.35731892  0.17938349  0.69569972    -0.72800
O768        O  0.41279065  0.18840540  0.81759886    -0.72800
O769        O  0.41449574  0.18744008  0.70093054    -0.72800
O770        O  0.35575154  0.18032457  0.81398990    -0.72800
Ni771      Ni  0.39189294  0.13636106  0.75765076     1.25400
Ni772      Ni  0.38476845  0.18561535  0.75695964     1.25400
C773        C  0.34975600  0.15589489  0.83234928     0.89400
C774        C  0.42766145  0.16554822  0.68392140     0.89400
C775        C  0.42507228  0.16661532  0.83709799     0.89400
C776        C  0.35206044  0.15473709  0.67627590     0.89600
O777        O  0.55226141  0.21012646  0.95993898    -0.72700
O778        O  0.49509375  0.21679600  0.56937573    -0.72800
O779        O  0.55271694  0.21921529  0.57009494    -0.72800
O780        O  0.49485570  0.21248045  0.96385559    -0.72900
O781        O  0.49349592  0.16628463  0.95369279    -0.72800
O782        O  0.55444466  0.17284361  0.56546716    -0.72800
O783        O  0.49712914  0.17041114  0.56553196    -0.72800
O784        O  0.55055792  0.16382389  0.95125865    -0.72800
Ni785      Ni  0.52351501  0.22060966  0.51160831     1.25400
Ni786      Ni  0.52570083  0.17095318  0.50752564     1.25400
C787        C  0.56098860  0.18748072  0.93708336     0.89400
C788        C  0.48631546  0.19291516  0.58565813     0.89400
C789        C  0.56356461  0.19602616  0.58606100     0.89400
C790        C  0.48401111  0.19037471  0.94108418     0.89600
C791        C  0.14607511  0.77767744  0.50047479     0.88200
C792        C  0.15852447  0.76612545  0.94232367    -0.52100
C793        C  0.18322787  0.75135947  0.94563743     0.11100
C794        C  0.19502777  0.75286945  0.50035902     0.22100
C795        C  0.14966975  0.75677558  0.54888021    -0.52800
C796        C  0.17526401  0.74353351  0.54942898     0.11200
C797        C  0.17114637  0.79747678  0.50761426    -0.52300
C798        C  0.19683064  0.78497010  0.50743455     0.11800
H799        H  0.14485479  0.76595570  0.90458466     0.16300
H800        H  0.21579084  0.74227673  0.50076554     0.02000
H801        H  0.13347212  0.75380247  0.58082684     0.16600
H802        H  0.16878370  0.81984446  0.51365754     0.16400
O803        O  0.15784632  0.62237943  0.69857762    -0.72700
O804        O  0.15396039  0.68013998  0.81162982    -0.72800
O805        O  0.14969098  0.67775107  0.69599051    -0.72800
O806        O  0.16269410  0.62452095  0.81394692    -0.72900
O807        O  0.20911315  0.63077560  0.80723831    -0.72800
O808        O  0.19592760  0.68499453  0.68865930    -0.72800
O809        O  0.20024088  0.68750662  0.80676928    -0.72800
O810        O  0.20421366  0.62868430  0.69104729    -0.72800
Ni811      Ni  0.15452463  0.65100717  0.75541252     1.25400
Ni812      Ni  0.20413535  0.65834561  0.74827578     1.25400
C813        C  0.18144287  0.61579777  0.67641958     0.89400
C814        C  0.17600269  0.69350510  0.82779539     0.89400
C815        C  0.17053623  0.68990891  0.67239883     0.89400
C816        C  0.18788733  0.61820822  0.82873970     0.89600
C817        C  0.15946148  0.25692907  0.98807628     0.88200
C818        C  0.16302416  0.27599532  0.53756683    -0.52100
C819        C  0.18940593  0.28789699  0.53945877     0.11100
C820        C  0.20944433  0.27979684  0.98577761     0.22100
C821        C  0.16450912  0.27445582  0.93495324    -0.52800
C822        C  0.19028647  0.28713800  0.93371502     0.11200
C823        C  0.18145965  0.23587941  0.48667110    -0.52300
C824        C  0.21002758  0.24758966  0.98810407     0.11800
H825        H  0.14772181  0.27893460  0.57131971     0.16300
H826        H  0.23062818  0.28960917  0.98461633     0.02000
H827        H  0.14859300  0.27664355  0.90145337     0.16600
H828        H  0.17743598  0.21358887  0.48553905     0.16400
O829        O  0.17213987  0.41163683  0.79813699    -0.72700
O830        O  0.16506299  0.35786631  0.67852154    -0.72800
O831        O  0.16264894  0.35638934  0.79433226    -0.72800
O832        O  0.17620001  0.41312586  0.68300156    -0.72900
O833        O  0.22215463  0.40371367  0.68684375    -0.72800
O834        O  0.20884053  0.34855072  0.80120768    -0.72800
O835        O  0.21086265  0.34790706  0.68329337    -0.72800
O836        O  0.21855712  0.40491991  0.80316780    -0.72800
Ni837      Ni  0.16746289  0.38498013  0.73822468     1.25400
Ni838      Ni  0.21684308  0.37587749  0.74387601     1.25400
C839        C  0.19618188  0.41779994  0.81948874     0.89400
C840        C  0.18619680  0.34389960  0.66111373     0.89400
C841        C  0.18357899  0.34338674  0.81657338     0.89400
C842        C  0.20157701  0.41800339  0.66736522     0.89600
O843        O  0.23882540  0.49042018  0.94012518    -0.72700
O844        O  0.22501539  0.54447203  0.55597784    -0.72800
O845        O  0.21791501  0.48782815  0.55448178    -0.72800
O846        O  0.23800236  0.54765461  0.94113356    -0.72900
O847        O  0.19134309  0.54621815  0.93037959    -0.72800
O848        O  0.17136843  0.49380238  0.54979372    -0.72800
O849        O  0.17843562  0.54972284  0.55075804    -0.72800
O850        O  0.19207552  0.48944904  0.93079051    -0.72800
Ni851      Ni  0.22451089  0.51592713  0.49722531     1.25400
Ni852      Ni  0.17458221  0.52144778  0.49231776     1.25400
C853        C  0.21648093  0.47992026  0.91762775     0.89400
C854        C  0.20246930  0.55675716  0.57206125     0.89400
C855        C  0.19288860  0.48133239  0.57017234     0.89400
C856        C  0.21516054  0.55705654  0.91854970     0.89600
N857        N  0.17622885  0.96413708  0.51006876    -0.34900
N858        N  0.13475151  0.00787337  0.52925962    -0.55500
N859        N  0.17948496  0.04896800  0.53324861    -0.34900
N860        N  0.22161152  0.00542500  0.52340376    -0.55500
C861        C  0.15266726  0.94868701  0.51836069     0.28700
C862        C  0.19867935  0.94725196  0.51910314     0.28700
C863        C  0.15768734  0.06419400  0.55344070     0.28700
C864        C  0.20326957  0.06296722  0.54779179     0.28700
C865        C  0.11677143  0.98643760  0.51968109     0.37300
C866        C  0.11867219  0.03104232  0.53287765     0.37300
C867        C  0.23727557  0.98263786  0.51098417     0.37300
C868        C  0.23878933  0.02789003  0.51859092     0.37300
C869        C  0.16014507  0.92170151  0.53219769    -0.20200
C870        C  0.18905812  0.92087356  0.53355632    -0.20200
C871        C  0.16772393  0.08777552  0.58179369    -0.20200
C872        C  0.19648995  0.08700830  0.57830088    -0.20200
C873        C  0.08927279  0.99598517  0.51902497    -0.21300
C874        C  0.09045612  0.02418972  0.52657910    -0.21200
C875        C  0.26465912  0.99070525  0.49895800    -0.21300
C876        C  0.26555957  0.01935050  0.50343866    -0.21200
C877        C  0.12449406  0.95817218  0.51448203    -0.16600
C878        C  0.22757369  0.95461673  0.51284330    -0.16600
C879        C  0.23082644  0.05577660  0.53071765    -0.16600
C880        C  0.12887794  0.05811557  0.54478417    -0.16600
H881        H  0.14620493  0.90454428  0.54192148     0.16300
H882        H  0.20146031  0.90280196  0.54467358     0.16300
H883        H  0.15556519  0.10386876  0.60291102     0.16300
H884        H  0.21080558  0.10251083  0.59603244     0.16300
H885        H  0.07015772  0.98394582  0.51576496     0.14600
H886        H  0.07237841  0.03778363  0.52881591     0.14600
H887        H  0.28218417  0.97735777  0.48799795     0.14600
H888        H  0.28390269  0.03233138  0.49706989     0.14600
H889        H  0.17686335  0.98426668  0.49408170     0.27900
H890        H  0.17812482  0.03209257  0.50490690     0.27900
N891        N  0.03257667  0.21663893  0.51374535    -0.34900
N892        N  0.07759116  0.17535509  0.51612757    -0.55500
N893        N  0.03655819  0.13136068  0.51495215    -0.34900
N894        N  0.99119524  0.17187294  0.50452423    -0.55500
C895        C  0.05524057  0.23300330  0.50329897     0.28700
C896        C  0.00912412  0.23108339  0.49901163     0.28700
C897        C  0.06025151  0.11726967  0.50193186     0.28700
C898        C  0.01465360  0.11548860  0.49700272     0.28700
C899        C  0.09223724  0.19862803  0.52975315     0.37300
C900        C  0.09431575  0.15367556  0.53025660     0.37300
C901        C  0.97448174  0.19360922  0.51827480     0.37300
C902        C  0.97684984  0.14868221  0.51911110     0.37300
C903        C  0.04606899  0.25834024  0.48200916    -0.20200
C904        C  0.01697375  0.25715366  0.47940262    -0.20200
C905        C  0.05334599  0.09239489  0.47433038    -0.20200
C906        C  0.02441833  0.09122553  0.47144665    -0.20200
C907        C  0.11823994  0.19161199  0.55335697    -0.21300
C908        C  0.11961651  0.16308417  0.55324669    -0.21200
C909        C  0.94959529  0.18404502  0.54214756    -0.21300
C910        C  0.95096040  0.15553331  0.54190691    -0.21200
C911        C  0.08374508  0.22592260  0.51515576    -0.16600
C912        C  0.98096899  0.22180613  0.50668272    -0.16600
C913        C  0.98638737  0.12141559  0.50897982    -0.16600
C914        C  0.08764844  0.12565504  0.51839028    -0.16600
H915        H  0.05896524  0.27594509  0.47011530     0.16300
H916        H  0.00318740  0.27367330  0.46507327     0.16300
H917        H  0.06763907  0.07670327  0.45817105     0.16300
H918        H  0.01206554  0.07458410  0.45228258     0.16300
H919        H  0.13475870  0.20558606  0.56814563     0.14600
H920        H  0.13730802  0.15073888  0.56771519     0.14600
H921        H  0.93232460  0.19622892  0.55879768     0.14600
H922        H  0.93488454  0.14148067  0.55719825     0.14600
H923        H  0.03292359  0.19778362  0.53536666     0.27900
H924        H  0.03523671  0.14893099  0.54149284     0.27900
N925        N  0.06161858  0.85294600  0.46773839    -0.34900
N926        N  0.02086226  0.89652082  0.46802921    -0.55500
N927        N  0.97663323  0.85476012  0.47854587    -0.34900
N928        N  0.01812561  0.81034358  0.47627891    -0.55500
C929        C  0.07715355  0.87442567  0.44803747     0.28700
C930        C  0.07500716  0.82936979  0.45195592     0.28700
C931        C  0.96107285  0.87735261  0.46423760     0.28700
C932        C  0.95982673  0.83207182  0.47196858     0.28700
C933        C  0.04410519  0.91273895  0.46480444     0.37300
C934        C  0.99858627  0.91388684  0.46695927     0.37300
C935        C  0.04113663  0.79448056  0.48676542     0.37300
C936        C  0.99539165  0.79522667  0.49176477     0.37300
C937        C  0.10023681  0.86451226  0.41840409    -0.20200
C938        C  0.09852397  0.83599861  0.41965414    -0.20200
C939        C  0.93411097  0.86889103  0.44849699    -0.20200
C940        C  0.93346140  0.84040789  0.45247336    -0.20200
C941        C  0.03656606  0.94032855  0.45889876    -0.21300
C942        C  0.00777354  0.94106202  0.45982156    -0.21200
C943        C  0.03299556  0.76896732  0.50856200    -0.21300
C944        C  0.00396827  0.76936580  0.51134392    -0.21200
C945        C  0.07179330  0.90266033  0.45934803    -0.16600
C946        C  0.06905968  0.80265216  0.47400921    -0.16600
C947        C  0.96707417  0.80425264  0.48633718    -0.16600
C948        C  0.97001312  0.90549896  0.46750113    -0.16600
H949        H  0.11663715  0.87649015  0.39810454     0.16300
H950        H  0.11367036  0.82172669  0.40125585     0.16300
H951        H  0.91660573  0.88172954  0.43504752     0.16300
H952        H  0.91542584  0.82741276  0.44223247     0.16300
H953        H  0.05014044  0.95759181  0.44867395     0.14600
H954        H  0.99511217  0.95921035  0.45125418     0.14600
H955        H  0.04645225  0.75178859  0.52065148     0.14600
H956        H  0.99072170  0.75260721  0.52631123     0.14600
H957        H  0.04556009  0.85430583  0.49787585     0.27900
H958        H  0.99640910  0.85507331  0.49805799     0.27900
N959        N  0.87531231  0.06167838  0.49534859    -0.34900
N960        N  0.83122200  0.01989433  0.50954667    -0.55500
N961        N  0.87476386  0.97720853  0.51134490    -0.34900
N962        N  0.91852154  0.01923762  0.50044376    -0.55500
C963        C  0.85208307  0.07683432  0.48261470     0.28700
C964        C  0.89785284  0.07618493  0.47608282     0.28700
C965        C  0.85221442  0.96176868  0.52670511     0.28700
C966        C  0.89787786  0.96127965  0.52042567     0.28700
C967        C  0.81448610  0.04265467  0.50760874     0.37300
C968        C  0.81421946  0.99756272  0.51697521     0.37300
C969        C  0.93561583  0.04163919  0.49673571     0.37300
C970        C  0.93541917  0.99691213  0.50711529     0.37300
C971        C  0.86000189  0.10097507  0.45453840    -0.20200
C972        C  0.88875388  0.10071139  0.45096594    -0.20200
C973        C  0.86130130  0.93594689  0.54597382    -0.20200
C974        C  0.88996137  0.93555022  0.54139015    -0.20200
C975        C  0.78661615  0.03471784  0.51427199    -0.21300
C976        C  0.78643307  0.00615851  0.51948212    -0.21200
C977        C  0.96349021  0.03337922  0.50151473    -0.21300
C978        C  0.96334450  0.00517460  0.50842767    -0.21200
C979        C  0.82387552  0.07022399  0.49708949    -0.16600
C980        C  0.92651547  0.06889465  0.48361915    -0.16600
C981        C  0.92618021  0.96914530  0.51195707    -0.16600
C982        C  0.82345787  0.96964408  0.52284411    -0.16600
H983        H  0.84647294  0.11723410  0.43807906     0.16300
H984        H  0.90136049  0.11693638  0.43197458     0.16300
H985        H  0.84865288  0.91909193  0.56248549     0.16300
H986        H  0.90350290  0.91846176  0.55373115     0.16300
H987        H  0.76821656  0.04795922  0.51440261     0.14600
H988        H  0.76796211  0.99328055  0.52518282     0.14600
H989        H  0.98223413  0.04596273  0.49952138     0.14600
H990        H  0.98181192  0.99247119  0.51483838     0.14600
H991        H  0.87590974  0.04422751  0.52150687     0.27900
H992        H  0.87424063  0.99631194  0.49084993     0.27900
C993        C  0.94797691  0.92744247  0.46937402    -0.14700
C994        C  0.94779768  0.94691814  0.51137319    -0.29900
H995        H  0.92936697  0.92783681  0.92597817     0.14300
H996        H  0.96440698  0.94738584  0.54390123     0.14900
C997        C  0.94799846  0.09099815  0.47446821    -0.14700
C998        C  0.96659802  0.09797895  0.51589664    -0.29900
H999        H  0.94988242  0.10325790  0.91825878     0.14300
H1000       H  0.96698825  0.08684918  0.55642275     0.14900
C1001       C  0.10795743  0.08100601  0.54992231    -0.14700
C1002       C  0.11053856  0.10469257  0.52007810    -0.29900
H1003       H  0.08882994  0.07738686  0.57404193     0.14300
H1004       H  0.12873443  0.10736970  0.98365297     0.14900
C1005       C  0.10122381  0.93739076  0.51058033    -0.14700
C1006       C  0.09607426  0.92235973  0.46241778    -0.29900
H1007       H  0.08674941  0.93610273  0.54644764     0.14300
H1008       H  0.09531917  0.94675991  0.90575794     0.14900
C1009       C  0.19653072  0.44046181  0.86290272    -0.14700
C1010       C  0.21905862  0.45608304  0.87685151    -0.29900
H1011       H  0.17628124  0.44581847  0.88137333     0.14300
H1012       H  0.23949688  0.45118133  0.85882338     0.14900
C1013       C  0.18782506  0.45892941  0.61148557    -0.14700
C1014       C  0.20767221  0.44067501  0.62706851    -0.29900
H1015       H  0.16656778  0.45676914  0.62780795     0.14300
H1016       H  0.22893325  0.44264019  0.61070916     0.14900
C1017       C  0.12917852  0.24277649  0.47899934    -0.14700
C1018       C  0.10632936  0.24755581  0.51181671    -0.29900
H1019       H  0.12966322  0.22570142  0.95211587     0.14300
H1020       H  0.10495931  0.26576091  0.53960364     0.14900
C1021       C  0.19784005  0.30790007  0.88914203    -0.14700
C1022       C  0.17778889  0.32226567  0.86047131    -0.29900
H1023       H  0.21995058  0.31229928  0.88193680     0.14300
H1024       H  0.15575240  0.31917824  0.87041764     0.14900
C1025       C  0.19894383  0.30779376  0.58582378    -0.14700
C1026       C  0.18011960  0.32308706  0.61523928    -0.29900
H1027       H  0.22132074  0.31076327  0.59366589     0.14300
H1028       H  0.15799069  0.32120933  0.60376711     0.14900
C1029       C  0.18125350  0.59298433  0.63336202    -0.14700
C1030       C  0.20440270  0.57966950  0.61515702    -0.29900
H1031       H  0.16072525  0.58631446  0.61730137     0.14300
H1032       H  0.22499126  0.58568892  0.63191115     0.14900
C1033       C  0.19140530  0.59550871  0.87026304    -0.14700
C1034       C  0.21548758  0.58135199  0.87969104    -0.29900
H1035       H  0.17226906  0.58898019  0.89165696     0.14300
H1036       H  0.23498161  0.58762785  0.85944073     0.14900
C1037       C  0.09333778  0.78315429  0.48318510    -0.14700
C1038       C  0.11842915  0.79323399  0.50205866    -0.29900
H1039       H  0.09739424  0.76787145  0.95836491     0.14300
H1040       H  0.11951232  0.81493192  0.51579221     0.14900
C1041       C  0.18349170  0.72279924  0.59397113    -0.14700
C1042       C  0.16411027  0.70982061  0.62621535    -0.29900
H1043       H  0.20566561  0.71802591  0.59974934     0.14300
H1044       H  0.14189490  0.71328685  0.61805575     0.14900
C1045       C  0.19154323  0.73012547  0.90110610    -0.14700
C1046       C  0.17160379  0.71625176  0.87042605    -0.29900
H1047       H  0.21352515  0.72436203  0.89710212     0.14300
H1048       H  0.14964257  0.72080952  0.87887003     0.14900
C1049       C  0.46296180  0.19167289  0.62737167    -0.14700
C1050       C  0.45118190  0.16742136  0.64287816    -0.29900
H1051       H  0.45493703  0.21116169  0.64475970     0.14300
H1052       H  0.45943383  0.14796595  0.62575445     0.14900
C1053       C  0.44731869  0.16837987  0.88151659    -0.14700
C1054       C  0.46007717  0.19201909  0.89979739    -0.29900
H1055       H  0.45448223  0.14846838  0.89800471     0.14300
H1056       H  0.45325237  0.21215190  0.88402777     0.14900
C1057       C  0.24587084  0.10246310  0.49989382    -0.14700
C1058       C  0.25204661  0.07888014  0.52878743    -0.29900
H1059       H  0.22672095  0.10443106  0.96793598     0.14300
H1060       H  0.27143596  0.07692735  0.55340514     0.14900
C1061       C  0.23238654  0.20444459  0.52118454    -0.14700
C1062       C  0.23368421  0.22883199  0.49285758    -0.29900
H1063       H  0.21348440  0.20005933  0.54554221     0.14300
H1064       H  0.25316505  0.23454044  0.96033306     0.14900
C1065       C  0.31562471  0.16870370  0.60245746    -0.14700
C1066       C  0.33121445  0.14933580  0.62974505    -0.29900
H1067       H  0.31894450  0.19066518  0.61193666     0.14300
H1068       H  0.32889995  0.12760330  0.61729822     0.14900
C1069       C  0.31405089  0.17082579  0.90638549    -0.14700
C1070       C  0.32782140  0.15108413  0.87589124    -0.29900
H1071       H  0.31940816  0.19265761  0.90138185     0.14300
H1072       H  0.32378416  0.12929474  0.88469826     0.14900
C1073       C  0.59770391  0.16628257  0.87745916    -0.14700
C1074       C  0.58403851  0.18911208  0.89514204    -0.29900
H1075       H  0.59097575  0.14595303  0.89237671     0.14300
H1076       H  0.59065273  0.20951819  0.88051836     0.14900
C1077       C  0.60074960  0.17210082  0.64147609    -0.14700
C1078       C  0.58719976  0.19590020  0.62825562    -0.29900
H1079       H  0.59410907  0.15263417  0.62122915     0.14300
H1080       H  0.59355202  0.21546130  0.64846971     0.14900
C1081       C  0.80819427  0.11768038  0.52465302    -0.14700
C1082       C  0.80285279  0.09342698  0.49651071    -0.29900
H1083       H  0.82690728  0.11895787  0.55194668     0.14300
H1084       H  0.78515377  0.09325611  0.96346940     0.14900
C1085       C  0.71975891  0.15802335  0.88972451    -0.14700
C1086       C  0.73363807  0.17898425  0.91724785    -0.29900
H1087       H  0.72443430  0.13661736  0.90084642     0.14300
H1088       H  0.72788333  0.20045025  0.90885726     0.14900
C1089       C  0.73464824  0.17967605  0.61572051    -0.14700
C1090       C  0.72224442  0.15956397  0.64653169    -0.29900
H1091       H  0.72788205  0.20116206  0.62035648     0.14300
H1092       H  0.72771893  0.13798509  0.63817407     0.14900
C1093       C  0.45369732  0.84797490  0.85690172    -0.14700
C1094       C  0.46651913  0.82351009  0.86877381    -0.29900
H1095       H  0.46111337  0.86699140  0.87786104     0.14300
H1096       H  0.45946310  0.80435578  0.84788204     0.14900
C1097       C  0.45254926  0.86045470  0.62000679    -0.14700
C1098       C  0.46880079  0.83874979  0.60701390    -0.29900
H1099       H  0.45698615  0.88069821  0.60152605     0.14300
H1100       H  0.46481081  0.81865839  0.62658154     0.14900
C1101       C  0.24913043  0.93180436  0.51300671    -0.14700
C1102       C  0.24671217  0.90899514  0.47864400    -0.29900
H1103       H  0.26693106  0.93425580  0.54209141     0.14300
H1104       H  0.23391088  0.90879465  0.95307650     0.14900
C1105       C  0.24486872  0.80474243  0.48747305    -0.14700
C1106       C  0.22199321  0.80244579  0.52105400    -0.29900
H1107       H  0.25432717  0.79104683  0.96693113     0.14300
H1108       H  0.21843337  0.81896524  0.55257023     0.14900
C1109       C  0.32150417  0.84456635  0.89480220    -0.14700
C1110       C  0.33339827  0.86401065  0.86153724    -0.29900
H1111       H  0.32765841  0.82287151  0.89082638     0.14300
H1112       H  0.32869673  0.88575833  0.87011193     0.14900
C1113       C  0.32198162  0.84935141  0.57931379    -0.14700
C1114       C  0.33389565  0.86953210  0.61278930    -0.29900
H1115       H  0.32830998  0.82781445  0.58481947     0.14300
H1116       H  0.32894740  0.89119301  0.60483973     0.14900
C1117       C  0.60876105  0.83754436  0.63228108    -0.14700
C1118       C  0.59021533  0.85620052  0.61295748    -0.29900
H1119       H  0.60735089  0.81600268  0.61769568     0.14300
H1120       H  0.59196238  0.87773743  0.62754284     0.14900
C1121       C  0.60773414  0.85097922  0.86679386    -0.14700
C1122       C  0.59208568  0.82801788  0.87306731    -0.29900
H1123       H  0.60179457  0.87001878  0.88927512     0.14300
H1124       H  0.59777539  0.80912492  0.84981595     0.14900
C1125       C  0.80412451  0.92494906  0.48933351    -0.14700
C1126       C  0.80222361  0.94666565  0.52634659    -0.29900
H1127       H  0.82350146  0.92672726  0.95580332     0.14300
H1128       H  0.78662401  0.94715977  0.56009210     0.14900
C1129       C  0.72656202  0.87113193  0.62567424    -0.14700
C1130       C  0.74009111  0.85345620  0.59011805    -0.29900
H1131       H  0.72936369  0.89333747  0.61960499     0.14300
H1132       H  0.73585629  0.83125542  0.59211653     0.14900
C1133       C  0.74349864  0.85501587  0.89924180    -0.14700
C1134       C  0.72787173  0.87414993  0.87056735    -0.29900
H1135       H  0.73964030  0.83293132  0.89234251     0.14300
H1136       H  0.73040977  0.89612961  0.88065076     0.14900
C1137       C  0.85927806  0.43661038  0.64755630    -0.14700
C1138       C  0.83721006  0.45217923  0.63205849    -0.29900
H1139       H  0.87995059  0.44142948  0.63059712     0.14300
H1140       H  0.81663541  0.44759804  0.64977659     0.14900
C1141       C  0.82954639  0.44821020  0.89752825    -0.14700
C1142       C  0.85312329  0.43378020  0.88394655    -0.29900
H1143       H  0.80933411  0.44217248  0.87897394     0.14300
H1144       H  0.87320533  0.43996493  0.90293740     0.14900
C1145       C  0.95765799  0.24274819  0.50771819    -0.14700
C1146       C  0.93207021  0.23741541  0.48386366    -0.29900
H1147       H  0.96162489  0.26200523  0.53104623     0.14300
H1148       H  0.93419968  0.22711185  0.95063706     0.14900
C1149       C  0.83288936  0.22643360  0.54561264    -0.14700
C1150       C  0.80897731  0.22219075  0.51509607    -0.29900
H1151       H  0.83869824  0.21100591  0.57757533     0.14300
H1152       H  0.80476595  0.24059419  0.97961097     0.14900
C1153       C  0.85605867  0.31771822  0.63015252    -0.14700
C1154       C  0.87982730  0.30757963  0.60744481    -0.29900
H1155       H  0.83576478  0.31072430  0.61372236     0.14300
H1156       H  0.89983940  0.31453808  0.62567237     0.14900
C1157       C  0.85587275  0.30877619  0.92624535    -0.14700
C1158       C  0.85871829  0.30849698  0.86863316    -0.29900
H1159       H  0.84552967  0.32624288  0.94720662     0.14300
H1160       H  0.86935041  0.29097012  0.84854501     0.14900
C1161       C  0.85670899  0.58732200  0.88294744    -0.14700
C1162       C  0.83353853  0.57318830  0.89715260    -0.29900
H1163       H  0.87702553  0.58045750  0.89936653     0.14300
H1164       H  0.81320196  0.57973275  0.88031736     0.14900
C1165       C  0.83649818  0.59272344  0.64971808    -0.14700
C1166       C  0.85451662  0.57299481  0.63277553    -0.29900
H1167       H  0.81486925  0.59238681  0.63405331     0.14300
H1168       H  0.87610184  0.57367495  0.64877571     0.14900
C1169       C  0.81605728  0.79953039  0.50787460    -0.14700
C1170       C  0.81655272  0.82286786  0.47604548    -0.29900
H1171       H  0.80658744  0.78960941  0.98797287     0.14300
H1172       H  0.83497022  0.82663875  0.44976420     0.14900
C1173       C  0.94375719  0.78335434  0.49138012    -0.14700
C1174       C  0.92087429  0.78859900  0.52393245    -0.29900
H1175       H  0.95207568  0.76642734  0.95776686     0.14300
H1176       H  0.92161025  0.80659438  0.55275691     0.14900
C1177       C  0.86148025  0.71884585  0.92837689    -0.14700
C1178       C  0.88010695  0.70491258  0.89508253    -0.29900
H1179       H  0.83912201  0.71448345  0.92394690     0.14300
H1180       H  0.90252653  0.70793419  0.90183959     0.14900
C1181       C  0.85057173  0.72403170  0.61863041    -0.14700
C1182       C  0.86951806  0.71035648  0.65135923    -0.29900
H1183       H  0.82832875  0.71917633  0.62210860     0.14300
H1184       H  0.89173539  0.71375237  0.64361596     0.14900
loop_ 
_geom_bond_atom_site_label_1 
_geom_bond_atom_site_label_2 
_geom_bond_distance 
_geom_bond_site_symmetry_2 
_ccdc_geom_bond_type 
C1            C2   1.522       .  S
C1            C7   1.525       .  S
C1          C582   1.520       .  S
C1          C597   1.533   1_554  S
C2            H9   1.087       .  S
C2            C3   1.367       .  D
C3            C4   1.557       .  S
C3          C589   1.491       .  S
C4            C8   1.558       .  S
C4          C598   1.553   1_554  S
C4           H10   1.110       .  S
C5          C593   1.538       .  S
C5           H11   1.080       .  S
C5            C6   1.373       .  D
C6          C596   1.550       .  S
C6          C585   1.497       .  S
C7           H12   1.085       .  S
C7            C8   1.371       .  D
C8          C577   1.510       .  S
O13         Ni21   1.905       .  S
O13          C23   1.275       .  A
O14         Ni21   1.907       .  S
O14          C24   1.280       .  A
O15         Ni21   1.922       .  S
O15          C25   1.283       .  A
O16         Ni21   1.923       .  S
O16          C26   1.285       .  A
O17         Ni22   1.917       .  S
O17          C26   1.278       .  A
O18         Ni22   1.926       .  S
O18          C25   1.281       .  A
O19         Ni22   1.947       .  S
O19          C24   1.286       .  A
O20         Ni22   1.941       .  S
O20          C23   1.289       .  A
Ni21        Ni22   2.386       .  S
C23         C569   1.481       .  S
C24         C590   1.495       .  S
C25         C586   1.481       .  S
C26         C573   1.481       .  S
C27          C33   1.530   1_556  S
C27          C31   1.533   1_556  S
C27         C554   1.529       .  S
C27         C620   1.537       .  S
C28         C619   1.526       .  S
C28          H35   1.086       .  S
C28          C29   1.375       .  D
C29         C622   1.548       .  S
C29         C565   1.499       .  S
C30          C34   1.549       .  S
C30          C32   1.554       .  S
C30         C621   1.547   1_554  S
C30          H36   1.109       .  S
C31          H37   1.083       .  S
C31          C32   1.362       .  D
C32         C562   1.485       .  S
C33          H38   1.087       .  S
C33          C34   1.363       .  D
C34         C557   1.487       .  S
O39         Ni47   1.884       .  S
O39          C49   1.271       .  A
O40         Ni47   1.885       .  S
O40          C50   1.273       .  A
O41         Ni47   1.923       .  S
O41          C51   1.285       .  A
O42         Ni47   1.923       .  S
O42          C52   1.284       .  A
O43         Ni48   1.911       .  S
O43          C52   1.278       .  A
O44         Ni48   1.916       .  S
O44          C51   1.278       .  A
O45         Ni48   1.959       .  S
O45          C50   1.289       .  A
O46         Ni48   1.949       .  S
O46          C49   1.290       .  A
Ni47        Ni48   2.389       .  S
C49         C545   1.471       .  S
C50         C566   1.477       .  S
C51         C561   1.481       .  S
C52         C550   1.471       .  S
O53        Ni653   1.899       .  S
O53          C63   1.274       .  A
O54         Ni61   1.908       .  S
O54          C64   1.275       .  A
O55         Ni61   1.948       .  S
O55          C65   1.288       .  A
O56        Ni653   1.946       .  S
O56          C66   1.288       .  A
O57        Ni654   1.886       .  S
O57          C66   1.274       .  A
O58         Ni62   1.893       .  S
O58          C65   1.274       .  A
O59         Ni62   1.930       .  S
O59          C64   1.287       .  A
O60        Ni654   1.946       .  S
O60          C63   1.289       .  A
Ni61        O645   1.906   1_554  S
Ni61        O648   1.949   1_554  S
Ni61        Ni62   2.387       .  S
Ni62        O649   1.898   1_554  S
Ni62        O652   1.937   1_554  S
C63         C570   1.479       .  S
C64         C546   1.479       .  S
C65         C574   1.475       .  S
C66         C549   1.481       .  S
C67          C73   1.526   1_556  S
C67          C71   1.537   1_556  S
C67         C533   1.518       .  S
C67         C660   1.518       .  S
C68         C659   1.520       .  S
C68          H75   1.084       .  S
C68          C69   1.367       .  D
C69         C662   1.557       .  S
C69         C541   1.496       .  S
C70          C74   1.553   1_556  S
C70          C72   1.543   1_556  S
C70         C661   1.558       .  S
C70          H76   1.111   1_556  S
C71          H77   1.083       .  S
C71          C72   1.379       .  D
C72         C538   1.491       .  S
C73          H78   1.087       .  S
C73          C74   1.366       .  D
C74         C578   1.495       .  S
O79         Ni87   1.923       .  S
O79          C89   1.284       .  A
O80         Ni87   1.923       .  S
O80          C90   1.284       .  A
O81         Ni87   1.887       .  S
O81          C91   1.273       .  A
O82         Ni87   1.886       .  S
O82          C92   1.272       .  A
O83         Ni88   1.940       .  S
O83          C92   1.288       .  A
O84         Ni88   1.950       .  S
O84          C91   1.288       .  A
O85         Ni88   1.920       .  S
O85          C90   1.280       .  A
O86         Ni88   1.918       .  S
O86          C89   1.279       .  A
Ni87        Ni88   2.390       .  S
C89         C525   1.476       .  S
C90         C542   1.477       .  S
C91         C537   1.472       .  S
C92         C529   1.468       .  S
C93          C94   1.533   1_556  S
C93          C99   1.530       .  S
C93         C510   1.520       .  S
C93         C689   1.525       .  S
C94         H101   1.083       .  S
C94          C95   1.364       .  D
C95          C96   1.554   1_554  S
C95         C521   1.485       .  S
C96         C100   1.543   1_556  S
C96         C690   1.545       .  S
C96         H102   1.110       .  S
C97         C685   1.529       .  S
C97         H103   1.087       .  S
C97          C98   1.369       .  D
C98         C688   1.552       .  S
C98         C517   1.494       .  S
C99         H104   1.087       .  S
C99         C100   1.370   1_556  D
C100        C513   1.490       .  S
O105       Ni113   1.926       .  S
O105        C115   1.286       .  A
O106       Ni113   1.926       .  S
O106        C116   1.285       .  A
O107       Ni113   1.904       .  S
O107        C117   1.278       .  A
O108       Ni113   1.897       .  S
O108        C118   1.274       .  A
O109       Ni114   1.953       .  S
O109        C118   1.290       .  A
O110       Ni114   1.955       .  S
O110        C117   1.289       .  A
O111       Ni114   1.918       .  S
O111        C116   1.279       .  A
O112       Ni114   1.911       .  S
O112        C115   1.276       .  A
Ni113      Ni114   2.386       .  S
C115        C501   1.478       .  S
C116        C522   1.483       .  S
C117        C518   1.497       .  S
C118        C505   1.482       .  S
O119       Ni127   1.947   1_554  S
O119        C129   1.288       .  A
O120       Ni719   1.949       .  S
O120        C130   1.289       .  A
O121       Ni719   1.899       .  S
O121        C131   1.274       .  A
O122       Ni127   1.909   1_554  S
O122        C132   1.276       .  A
O123       Ni128   1.941   1_554  S
O123        C132   1.289       .  A
O124       Ni720   1.929       .  S
O124        C131   1.287       .  A
O125       Ni720   1.885       .  S
O125        C130   1.271       .  A
O126       Ni128   1.892   1_554  S
O126        C129   1.276       .  A
Ni127       O712   1.946       .  S
Ni127       O713   1.905       .  S
Ni127      Ni128   2.386       .  S
Ni128       O716   1.941       .  S
Ni128       O717   1.897       .  S
C129        C526   1.484       .  S
C130        C502   1.470       .  S
C131        C530   1.473       .  S
C132        C506   1.486       .  S
C133        C137   1.537       .  S
C133        C726   1.527       .  S
C133        C731   1.531       .  S
C133       C1081   1.519       .  S
C134        C725   1.530       .  S
C134        H141   1.085       .  S
C134        C135   1.374       .  D
C135        C728   1.547       .  S
C135        C497   1.498       .  S
C136        C140   1.545       .  S
C136        C138   1.546       .  S
C136        C727   1.546       .  S
C136        H142   1.111       .  S
C137        H143   1.083       .  S
C137        C138   1.370       .  D
C138        C494   1.491       .  S
C139        C725   1.530       .  S
C139        H144   1.087       .  S
C139        C732   1.369       .  D
C140        C731   1.368       .  D
C140       C1150   1.495       .  S
O145       Ni153   1.899       .  S
O145        C155   1.276       .  A
O146       Ni153   1.900       .  S
O146        C156   1.277       .  A
O147       Ni153   1.923       .  S
O147        C157   1.282       .  A
O148       Ni153   1.921       .  S
O148        C158   1.285       .  A
O149       Ni154   1.910       .  S
O149        C158   1.277       .  A
O150       Ni154   1.921       .  S
O150        C157   1.281       .  A
O151       Ni154   1.950       .  S
O151        C156   1.287       .  A
O152       Ni154   1.946       .  S
O152        C155   1.288       .  A
Ni153      Ni154   2.389       .  S
C155        C481   1.478       .  S
C156        C498   1.480       .  S
C157        C493   1.479       .  S
C158        C485   1.476       .  S
C159        C165   1.524       .  S
C159        C163   1.534       .  S
C159        C465   1.516   1_554  S
C159        C752   1.524   1_554  S
C160        C751   1.525       .  S
C160        H167   1.085       .  S
C160        C161   1.373       .  D
C161        C754   1.548       .  S
C161        C477   1.497       .  S
C162        C166   1.553       .  S
C162        C164   1.554       .  S
C162        C753   1.552   1_554  S
C162        H168   1.111       .  S
C163        H169   1.081       .  S
C163        C164   1.373       .  D
C164        C473   1.500       .  S
C165        H170   1.088       .  S
C165        C166   1.362       .  D
C166        C469   1.487       .  S
O171       Ni179   1.897       .  S
O171        C181   1.277       .  A
O172       Ni179   1.897       .  S
O172        C182   1.275       .  A
O173       Ni179   1.917       .  S
O173        C183   1.281       .  A
O174       Ni179   1.915       .  S
O174        C184   1.281       .  A
O175       Ni180   1.936       .  S
O175        C184   1.283       .  A
O176       Ni180   1.927       .  S
O176        C183   1.283       .  A
O177       Ni180   1.930       .  S
O177        C182   1.286       .  A
O178       Ni180   1.945       .  S
O178        C181   1.286       .  A
Ni179      Ni180   2.390       .  S
C181        C478   1.475       .  S
C182        C458   1.468       .  S
C183        C461   1.478       .  S
C184        C474   1.481       .  S
O185       Ni785   1.924       .  S
O185        C195   1.281       .  A
O186       Ni193   1.909       .  S
O186        C196   1.277       .  A
O187       Ni193   1.939       .  S
O187        C197   1.287       .  A
O188       Ni785   1.935       .  S
O188        C198   1.284       .  A
O189       Ni786   1.910       .  S
O189        C198   1.280       .  A
O190       Ni194   1.893       .  S
O190        C197   1.274       .  A
O191       Ni194   1.920       .  S
O191        C196   1.284       .  A
O192       Ni786   1.922       .  S
O192        C195   1.284       .  A
Ni193       O777   1.908   1_554  S
Ni193       O780   1.940   1_554  S
Ni193      Ni194   2.389       .  S
Ni194       O781   1.893   1_554  S
Ni194       O784   1.924   1_554  S
C195        C482   1.485       .  S
C196        C457   1.472       .  S
C197        C486   1.470       .  S
C198        C462   1.484       .  S
C199        C205   1.525   1_556  S
C199        C203   1.531   1_556  S
C199        C446   1.516       .  S
C199        C792   1.532       .  S
C200        C791   1.531       .  S
C200        H207   1.085       .  S
C200        C201   1.374       .  D
C201        C794   1.553       .  S
C201        C453   1.500       .  S
C202        C206   1.546       .  S
C202        C204   1.547       .  S
C202        C793   1.550   1_554  S
C202        H208   1.111       .  S
C203        H209   1.084       .  S
C203        C204   1.376       .  D
C204        C449   1.492       .  S
C205        H210   1.088       .  S
C205        C206   1.358       .  D
C206        C514   1.480       .  S
O211       Ni219   1.913       .  S
O211        C221   1.279       .  A
O212       Ni219   1.912       .  S
O212        C222   1.280       .  A
O213       Ni219   1.905       .  S
O213        C223   1.278       .  A
O214       Ni219   1.903       .  S
O214        C224   1.278       .  A
O215       Ni220   1.932       .  S
O215        C224   1.283       .  A
O216       Ni220   1.937       .  S
O216        C223   1.285       .  A
O217       Ni220   1.944       .  S
O217        C222   1.285       .  A
O218       Ni220   1.932       .  S
O218        C221   1.285       .  A
Ni219      Ni220   2.389       .  S
C221        C437   1.480       .  S
C222        C454   1.483       .  S
C223        C450   1.476       .  S
C224        C441   1.471       .  S
C225        C229   1.525       .  S
C225        C818   1.537       .  S
C225        C823   1.530       .  S
C225       C1017   1.520       .  S
C226        C817   1.539   1_554  S
C226        H233   1.083       .  S
C226        C227   1.376       .  D
C227        C820   1.546   1_554  S
C227        C433   1.496       .  S
C228        C232   1.548       .  S
C228        C230   1.551       .  S
C228        C819   1.546       .  S
C228        H234   1.111       .  S
C229        H235   1.085       .  S
C229        C230   1.370       .  D
C230        C429   1.495       .  S
C231        C817   1.529       .  S
C231        H236   1.087       .  S
C231        C824   1.368       .  D
C232        C823   1.369       .  D
C232       C1062   1.502       .  S
O237       Ni245   1.899       .  S
O237        C247   1.278       .  A
O238       Ni245   1.902       .  S
O238        C248   1.277       .  A
O239       Ni245   1.919       .  S
O239        C249   1.282       .  A
O240       Ni245   1.916       .  S
O240        C250   1.283       .  A
O241       Ni246   1.923       .  S
O241        C250   1.280       .  A
O242       Ni246   1.929       .  S
O242        C249   1.282       .  A
O243       Ni246   1.947       .  S
O243        C248   1.287       .  A
O244       Ni246   1.940       .  S
O244        C247   1.286       .  A
Ni245      Ni246   2.387       .  S
C247        C417   1.484       .  S
C248        C434   1.480       .  S
C249        C430   1.480       .  S
C250        C422   1.482       .  S
O251       Ni851   1.923       .  S
O251        C261   1.281       .  A
O252       Ni259   1.920   1_554  S
O252        C262   1.280       .  A
O253       Ni259   1.942   1_554  S
O253        C263   1.287       .  A
O254       Ni851   1.938       .  S
O254        C264   1.284       .  A
O255       Ni852   1.896       .  S
O255        C264   1.279       .  A
O256       Ni260   1.894   1_554  S
O256        C263   1.275       .  A
O257       Ni260   1.924   1_554  S
O257        C262   1.284       .  A
O258       Ni852   1.919       .  S
O258        C261   1.282       .  A
Ni259       O843   1.919       .  S
Ni259       O846   1.940       .  S
Ni259      Ni260   2.388       .  S
Ni260       O847   1.894       .  S
Ni260       O850   1.926       .  S
C261        C418   1.476       .  S
C262        C438   1.482       .  S
C263        C421   1.472       .  S
C264        C442   1.484       .  S
N265        C270   1.354       .  A
N265        C269   1.354       .  A
N265        H297   1.040   1_554  S
N266        C273   1.351   1_544  A
N266        C274   1.353       .  A
N267        C272   1.352       .  A
N267        C271   1.355       .  A
N267        H298   1.040   1_554  S
N268        C275   1.353   1_545  A
N268        C276   1.353       .  A
C269        C277   1.386       .  A
C269        C285   1.411   1_554  A
C270        C286   1.418       .  A
C270        C278   1.388       .  A
C271        C279   1.386       .  A
C271        C288   1.414       .  A
C272        C287   1.414       .  A
C272        C280   1.387       .  A
C273        C285   1.414       .  A
C273        C281   1.385       .  A
C274        C288   1.412       .  A
C274        C282   1.386       .  A
C275        C283   1.386   1_554  A
C275        C286   1.415       .  A
C276        C284   1.386       .  A
C276        C287   1.414       .  A
C277        C278   1.370       .  A
C277        H289   1.081       .  S
C278        H290   1.082       .  S
C279        C280   1.370       .  A
C279        H291   1.081       .  S
C280        H292   1.082       .  S
C281        C282   1.370   1_566  A
C281        H293   1.077       .  S
C282        H294   1.082       .  S
C283        C284   1.377   1_566  A
C283        H295   1.082       .  S
C284        H296   1.082   1_554  S
C285        C413   1.486       .  S
C286        C509   1.496       .  S
C287        C466   1.492       .  S
C288        C409   1.493       .  S
N299        C304   1.357       .  A
N299        C303   1.356       .  A
N299        H331   1.039       .  S
N300        C307   1.349       .  A
N300        C308   1.354       .  A
N301        C306   1.348   1_554  A
N301        C305   1.351   1_554  A
N301        H332   1.042       .  S
N302        C309   1.351       .  A
N302        C310   1.352       .  A
C303        C311   1.387   1_554  A
C303        C319   1.421       .  A
C304        C320   1.422   1_455  A
C304        C312   1.387   1_554  A
C305        C313   1.386       .  A
C305        C322   1.409   1_556  A
C306        C321   1.404   1_455  A
C306        C314   1.385       .  A
C307        C319   1.418       .  A
C307        C315   1.390       .  A
C308        C322   1.409       .  A
C308        C316   1.383       .  A
C309        C317   1.388       .  A
C309        C320   1.416       .  A
C310        C318   1.384       .  A
C310        C321   1.406   1_554  A
C311        C312   1.382       .  A
C311        H323   1.082       .  S
C312        H324   1.082       .  S
C313        C314   1.375       .  A
C313        H325   1.082       .  S
C314        H326   1.079       .  S
C315        C316   1.369       .  A
C315        H327   1.082       .  S
C316        H328   1.081       .  S
C317        C318   1.371       .  A
C317        H329   1.080       .  S
C318        H330   1.083       .  S
C319        C426   1.493       .  S
C320        C553   1.499       .  S
C321        C406   1.474   1_556  S
C322        C410   1.488       .  S
N333        C338   1.353       .  A
N333        C337   1.353       .  A
N333        H365   1.040       .  S
N334        C341   1.350       .  A
N334        C342   1.349   1_455  A
N335        C340   1.352       .  A
N335        C339   1.355       .  A
N335        H366   1.038   1_655  S
N336        C343   1.356       .  A
N336        C344   1.354       .  A
C337        C345   1.383       .  A
C337        C353   1.408       .  A
C338        C354   1.421       .  A
C338        C346   1.390       .  A
C339        C347   1.385       .  A
C339        C356   1.412       .  A
C340        C355   1.421       .  A
C340        C348   1.390       .  A
C341        C353   1.405       .  A
C341        C349   1.384       .  A
C342        C356   1.412       .  A
C342        C350   1.386   1_655  A
C343        C351   1.386       .  A
C343        C354   1.419       .  A
C344        C352   1.386       .  A
C344        C355   1.418   1_455  A
C345        C346   1.373       .  A
C345        H357   1.083       .  S
C346        H358   1.082       .  S
C347        C348   1.370       .  A
C347        H359   1.082       .  S
C348        H360   1.081       .  S
C349        C350   1.366       .  A
C349        H361   1.080       .  S
C350        H362   1.080   1_455  S
C351        C352   1.376       .  A
C351        H363   1.082   1_556  S
C352        H364   1.082   1_456  S
C353        C414   1.482       .  S
C354        C445   1.503       .  S
C355        C581   1.493       .  S
C356        C401   1.486       .  S
N367        C372   1.357       .  A
N367        C371   1.355       .  A
N367        H399   1.039   1_556  S
N368        C375   1.355       .  A
N368        C376   1.355       .  A
N369        C374   1.355       .  A
N369        C373   1.353       .  A
N369        H400   1.039   1_554  S
N370        C377   1.349       .  A
N370        C378   1.349   1_545  A
C371        C379   1.389       .  A
C371        C387   1.421       .  A
C372        C388   1.413       .  A
C372        C380   1.386       .  A
C373        C381   1.390       .  A
C373        C390   1.419       .  A
C374        C389   1.409   1_554  A
C374        C382   1.384       .  A
C375        C387   1.422   1_554  A
C375        C383   1.387       .  A
C376        C390   1.420   1_545  A
C376        C384   1.385       .  A
C377        C385   1.386       .  A
C377        C388   1.412       .  A
C378        C386   1.384   1_565  A
C378        C389   1.407       .  A
C379        C380   1.370       .  A
C379        H391   1.082       .  S
C380        H392   1.082       .  S
C381        C382   1.367       .  A
C381        H393   1.082       .  S
C382        H394   1.083       .  S
C383        C384   1.379       .  A
C383        H395   1.082       .  S
C384        H396   1.082   1_545  S
C385        C386   1.366       .  A
C385        H397   1.076       .  S
C386        H398   1.080   1_545  S
C387        C490   1.499       .  S
C388        C405   1.484       .  S
C389        C402   1.482       .  S
C390        C534   1.500       .  S
C401        H995   1.086       .  S
C401        C402   1.344       .  D
C402        H404   1.087   1_556  S
H403        C993   1.086       .  S
C405        H999   1.087       .  S
C405        C406   1.337   1_556  D
C406        H408   1.087       .  S
H407        C997   1.086       .  S
C409        H411   1.086       .  S
C409        C410   1.347       .  D
C410       H1004   1.087   1_554  S
H412       C1002   1.087       .  S
C413        H415   1.087   1_556  S
C413        C414   1.344       .  D
C414       H1008   1.086       .  S
H416       C1006   1.086       .  S
C417        H419   1.086       .  S
C417        C418   1.351       .  D
C418        H420   1.087       .  S
C421        H423   1.087       .  S
C421        C422   1.342       .  D
C422        H424   1.086       .  S
C425        C817   1.515       .  S
C425       H1019   1.088       .  S
C425        C426   1.348   1_556  D
C426        H428   1.083       .  S
H427       C1017   1.088       .  S
C429        H431   1.086       .  S
C429        C430   1.352       .  D
C430        H432   1.085       .  S
C433        H435   1.086       .  S
C433        C434   1.346       .  D
C434        H436   1.086       .  S
C437        H439   1.087       .  S
C437        C438   1.344       .  D
C438        H440   1.087       .  S
C441        H443   1.087       .  S
C441        C442   1.348       .  D
C442        H444   1.086       .  S
C445       H1039   1.086       .  S
C445        C446   1.349       .  D
C446        H448   1.087   1_556  S
H447       C1037   1.086       .  S
C449        H451   1.086       .  S
C449        C450   1.345       .  D
C450        H452   1.084       .  S
C453        H455   1.085       .  S
C453        C454   1.351       .  D
C454        H456   1.085       .  S
C457        H459   1.087       .  S
C457        C458   1.338       .  D
C458        H460   1.087       .  S
C461        H463   1.087       .  S
C461        C462   1.349       .  D
C462        H464   1.086       .  S
C465       H1059   1.088       .  S
C465        C466   1.349   1_556  D
C466        H468   1.083       .  S
H467       C1057   1.088       .  S
C469        H471   1.088       .  S
C469        C470   1.348   1_554  D
C470       H1064   1.085       .  S
C470        C824   1.499       .  S
H472       C1062   1.085       .  S
C473        H475   1.086       .  S
C473        C474   1.352       .  D
C474        H476   1.084       .  S
C477        H479   1.085       .  S
C477        C478   1.348       .  D
C478        H480   1.085       .  S
C481        H483   1.087       .  S
C481        C482   1.343       .  D
C482        H484   1.086       .  S
C485        H487   1.087       .  S
C485        C486   1.338       .  D
C486        H488   1.087       .  S
C489        C725   1.524       .  S
C489        H491   1.088       .  S
C489        C490   1.353   1_554  D
C490       H1084   1.083       .  S
H492       C1082   1.084       .  S
C493        H495   1.085       .  S
C493        C494   1.351       .  D
C494        H496   1.086       .  S
C497        H499   1.086       .  S
C497        C498   1.347       .  D
C498        H500   1.085       .  S
C501        H503   1.086       .  S
C501        C502   1.337       .  D
C502        H504   1.088       .  S
C505        H507   1.087       .  S
C505        C506   1.339       .  D
C506        H508   1.087       .  S
C509        H511   1.082       .  S
C509        C510   1.351   1_554  D
C510       H1104   1.088       .  S
H512       C1102   1.087       .  S
C513       H1107   1.086   1_554  S
C513        C514   1.342       .  D
C514        H516   1.088       .  S
H515       C1105   1.085       .  S
C517        H519   1.087       .  S
C517        C518   1.353       .  D
C518        H520   1.085       .  S
C521        H523   1.087       .  S
C521        C522   1.340       .  D
C522        H524   1.085       .  S
C525        H527   1.087       .  S
C525        C526   1.353       .  D
C526        H528   1.086       .  S
C529        H531   1.087       .  S
C529        C530   1.333       .  D
C530        H532   1.087       .  S
C533       H1127   1.088       .  S
C533        C534   1.352   1_556  D
C534        H536   1.083       .  S
H535       C1125   1.089       .  S
C537        H539   1.086       .  S
C537        C538   1.340       .  D
C538        H540   1.086       .  S
C541        H543   1.086       .  S
C541        C542   1.355       .  D
C542        H544   1.083       .  S
C545        H547   1.087       .  S
C545        C546   1.335       .  D
C546        H548   1.087       .  S
C549        H551   1.086       .  S
C549        C550   1.353       .  D
C550        H552   1.086       .  S
C553        H555   1.081       .  S
C553        C554   1.356   1_554  D
C554       H1148   1.087       .  S
H556       C1146   1.088       .  S
C557        H559   1.087       .  S
C557        C558   1.351       .  D
C558       H1152   1.085   1_554  S
C558        C732   1.501       .  S
H560       C1150   1.086       .  S
C561        H563   1.085       .  S
C561        C562   1.339       .  D
C562        H564   1.087       .  S
C565        H567   1.085       .  S
C565        C566   1.346       .  D
C566        H568   1.086       .  S
C569        H571   1.087       .  S
C569        C570   1.338       .  D
C570        H572   1.087       .  S
C573        H575   1.086       .  S
C573        C574   1.340       .  D
C574        H576   1.088       .  S
C577       H1171   1.085   1_554  S
C577        C578   1.353       .  D
C578        H580   1.086       .  S
H579       C1169   1.085       .  S
C581       H1175   1.082       .  S
C581        C582   1.350   1_556  D
C582        H584   1.088       .  S
H583       C1173   1.083       .  S
C585        H587   1.086       .  S
C585        C586   1.352       .  D
C586        H588   1.083       .  S
C589        H591   1.088       .  S
C589        C590   1.349       .  D
C590        H592   1.085       .  S
C593        C594   1.529       .  S
C593        C599   1.529       .  S
C593       C1174   1.526       .  S
C594        H601   1.085       .  S
C594        C595   1.374       .  D
C595        C596   1.549       .  S
C595       C1181   1.503       .  S
C596        C600   1.547       .  S
C596        H602   1.111       .  S
C597        H603   1.081       .  S
C597        C598   1.370       .  D
C598       C1177   1.495       .  S
C599        H604   1.087       .  S
C599        C600   1.368       .  D
C600       C1169   1.499       .  S
O605       Ni613   1.893       .  S
O605        C615   1.273       .  A
O606       Ni613   1.895       .  S
O606        C616   1.275       .  A
O607       Ni613   1.925       .  S
O607        C617   1.284       .  A
O608       Ni613   1.928       .  S
O608        C618   1.286       .  A
O609       Ni614   1.909       .  S
O609        C618   1.276       .  A
O610       Ni614   1.921       .  S
O610        C617   1.280       .  A
O611       Ni614   1.956       .  S
O611        C616   1.289       .  A
O612       Ni614   1.951       .  S
O612        C615   1.290       .  A
Ni613      Ni614   2.388       .  S
C615       C1161   1.478       .  S
C616       C1182   1.481       .  S
C617       C1178   1.479       .  S
C618       C1165   1.478       .  S
C619        C625   1.528       .  S
C619        C623   1.536       .  S
C619       C1146   1.524       .  S
C620        H627   1.085       .  S
C620        C621   1.377       .  D
C621       C1157   1.497       .  S
C622        C626   1.550       .  S
C622        C624   1.556       .  S
C622        H628   1.109       .  S
C623        H629   1.083       .  S
C623        C624   1.365       .  D
C624       C1154   1.491       .  S
C625        H630   1.087       .  S
C625        C626   1.363       .  D
C626       C1149   1.483       .  S
O631       Ni639   1.900       .  S
O631        C641   1.274       .  A
O632       Ni639   1.903       .  S
O632        C642   1.275       .  A
O633       Ni639   1.932       .  S
O633        C643   1.286       .  A
O634       Ni639   1.934       .  S
O634        C644   1.286       .  A
O635       Ni640   1.915       .  S
O635        C644   1.278       .  A
O636       Ni640   1.917       .  S
O636        C643   1.279       .  A
O637       Ni640   1.952       .  S
O637        C642   1.288       .  A
O638       Ni640   1.943       .  S
O638        C641   1.289       .  A
Ni639      Ni640   2.388       .  S
C641       C1137   1.480       .  S
C642       C1158   1.478       .  S
C643       C1153   1.485       .  S
C644       C1142   1.482       .  S
O645        C655   1.276       .  A
O646       Ni653   1.901       .  S
O646        C656   1.275       .  A
O647       Ni653   1.947       .  S
O647        C657   1.289       .  A
O648        C658   1.289       .  A
O649        C658   1.276       .  A
O650       Ni654   1.887       .  S
O650        C657   1.272       .  A
O651       Ni654   1.943       .  S
O651        C656   1.289       .  A
O652        C655   1.288       .  A
Ni653      Ni654   2.388       .  S
C655       C1162   1.481       .  S
C656       C1138   1.480       .  S
C657       C1166   1.472       .  S
C658       C1141   1.487       .  S
C659        C665   1.526       .  S
C659        C663   1.538       .  S
C659       C1125   1.515       .  S
C660        H667   1.086       .  S
C660        C661   1.366       .  D
C661       C1133   1.496       .  S
C662        C666   1.549       .  S
C662        C664   1.549       .  S
C662        H668   1.111       .  S
C663        H669   1.082       .  S
C663        C664   1.380       .  D
C664       C1130   1.503       .  S
C665        H670   1.088       .  S
C665        C666   1.362       .  D
C666       C1170   1.486       .  S
O671       Ni679   1.932       .  S
O671        C681   1.287       .  A
O672       Ni679   1.927       .  S
O672        C682   1.285       .  A
O673       Ni679   1.894       .  S
O673        C683   1.275       .  A
O674       Ni679   1.894       .  S
O674        C684   1.272       .  A
O675       Ni680   1.951       .  S
O675        C684   1.291       .  A
O676       Ni680   1.959       .  S
O676        C683   1.290       .  A
O677       Ni680   1.918       .  S
O677        C682   1.278       .  A
O678       Ni680   1.905       .  S
O678        C681   1.275       .  A
Ni679      Ni680   2.388       .  S
C681       C1117   1.478       .  S
C682       C1134   1.478       .  S
C683       C1129   1.482       .  S
C684       C1121   1.479       .  S
C685        C686   1.534       .  S
C685        C691   1.528       .  S
C685       C1102   1.527       .  S
C686        H693   1.080       .  S
C686        C687   1.373       .  D
C687        C688   1.558       .  S
C687       C1113   1.501       .  S
C688        C692   1.552       .  S
C688        H694   1.110       .  S
C689        H695   1.085       .  S
C689        C690   1.374       .  D
C690       C1109   1.497       .  S
C691        H696   1.087       .  S
C691        C692   1.369       .  D
C692       C1105   1.499       .  S
O697       Ni705   1.925       .  S
O697        C707   1.284       .  A
O698       Ni705   1.922       .  S
O698        C708   1.283       .  A
O699       Ni705   1.886       .  S
O699        C709   1.274       .  A
O700       Ni705   1.886       .  S
O700        C710   1.271       .  A
O701       Ni706   1.938       .  S
O701        C710   1.288       .  A
O702       Ni706   1.952       .  S
O702        C709   1.288       .  A
O703       Ni706   1.931       .  S
O703        C708   1.282       .  A
O704       Ni706   1.921       .  S
O704        C707   1.280       .  A
Ni705      Ni706   2.390       .  S
C707       C1093   1.478       .  S
C708       C1114   1.483       .  S
C709       C1110   1.473       .  S
C710       C1097   1.466       .  S
O711       Ni719   1.947       .  S
O711        C721   1.290       .  A
O712        C722   1.288       .  A
O713        C723   1.275       .  A
O714       Ni719   1.895       .  S
O714        C724   1.273       .  A
O715       Ni720   1.930       .  S
O715        C724   1.287       .  A
O716        C723   1.288       .  A
O717        C722   1.276       .  A
O718       Ni720   1.888       .  S
O718        C721   1.272       .  A
Ni719      Ni720   2.390       .  S
C721       C1118   1.473       .  S
C722       C1094   1.486       .  S
C723       C1122   1.481       .  S
C724       C1098   1.470       .  S
C725        C729   1.535   1_554  S
C726        H733   1.085       .  S
C726        C727   1.373       .  D
C727       C1089   1.495       .  S
C728        C732   1.551       .  S
C728        C730   1.552   1_554  S
C728        H734   1.111       .  S
C729        H735   1.082       .  S
C729        C730   1.371       .  D
C730       C1086   1.499       .  S
C731        H736   1.087       .  S
O737       Ni745   1.897       .  S
O737        C747   1.275       .  A
O738       Ni745   1.896       .  S
O738        C748   1.276       .  A
O739       Ni745   1.920       .  S
O739        C749   1.282       .  A
O740       Ni745   1.920       .  S
O740        C750   1.282       .  A
O741       Ni746   1.924       .  S
O741        C750   1.282       .  A
O742       Ni746   1.933       .  S
O742        C749   1.283       .  A
O743       Ni746   1.944       .  S
O743        C748   1.286       .  A
O744       Ni746   1.936       .  S
O744        C747   1.287       .  A
Ni745      Ni746   2.389       .  S
C747       C1073   1.472       .  S
C748       C1090   1.474       .  S
C749       C1085   1.483       .  S
C750       C1077   1.478       .  S
C751        C757   1.526       .  S
C751        C755   1.534       .  S
C751       C1057   1.521       .  S
C752        H759   1.085       .  S
C752        C753   1.371       .  D
C753       C1069   1.498       .  S
C754        C758   1.552       .  S
C754        C756   1.552       .  S
C754        H760   1.111       .  S
C755        H761   1.082       .  S
C755        C756   1.376       .  D
C756       C1065   1.497       .  S
C757        H762   1.088       .  S
C757        C758   1.364       .  D
C758       C1061   1.489       .  S
O763       Ni771   1.909       .  S
O763        C773   1.280       .  A
O764       Ni771   1.911       .  S
O764        C774   1.279       .  A
O765       Ni771   1.904       .  S
O765        C775   1.279       .  A
O766       Ni771   1.906       .  S
O766        C776   1.279       .  A
O767       Ni772   1.940       .  S
O767        C776   1.285       .  A
O768       Ni772   1.931       .  S
O768        C775   1.283       .  A
O769       Ni772   1.932       .  S
O769        C774   1.285       .  A
O770       Ni772   1.939       .  S
O770        C773   1.284       .  A
Ni771      Ni772   2.389       .  S
C773       C1070   1.478       .  S
C774       C1050   1.479       .  S
C775       C1053   1.471       .  S
C776       C1066   1.479       .  S
O777        C787   1.277       .  A
O778       Ni785   1.922       .  S
O778        C788   1.281       .  A
O779       Ni785   1.933       .  S
O779        C789   1.284       .  A
O780        C790   1.285       .  A
O781        C790   1.278       .  A
O782       Ni786   1.908       .  S
O782        C789   1.280       .  A
O783       Ni786   1.921       .  S
O783        C788   1.283       .  A
O784        C787   1.285       .  A
Ni785      Ni786   2.387       .  S
C787       C1074   1.475       .  S
C788       C1049   1.481       .  S
C789       C1078   1.483       .  S
C790       C1054   1.482       .  S
C791        C797   1.529       .  S
C791        C795   1.522       .  S
C791       C1038   1.513       .  S
C792        H799   1.085       .  S
C792        C793   1.374       .  D
C793       C1045   1.501       .  S
C794        C798   1.550       .  S
C794        C796   1.552       .  S
C794        H800   1.111       .  S
C795        H801   1.084       .  S
C795        C796   1.373       .  D
C796       C1041   1.492       .  S
C797        H802   1.088       .  S
C797        C798   1.361       .  D
C798       C1106   1.488       .  S
O803       Ni811   1.903       .  S
O803        C813   1.277       .  A
O804       Ni811   1.904       .  S
O804        C814   1.278       .  A
O805       Ni811   1.906       .  S
O805        C815   1.279       .  A
O806       Ni811   1.908       .  S
O806        C816   1.280       .  A
O807       Ni812   1.926       .  S
O807        C816   1.282       .  A
O808       Ni812   1.931       .  S
O808        C815   1.283       .  A
O809       Ni812   1.951       .  S
O809        C814   1.287       .  A
O810       Ni812   1.938       .  S
O810        C813   1.286       .  A
Ni811      Ni812   2.390       .  S
C813       C1029   1.475       .  S
C814       C1046   1.483       .  S
C815       C1042   1.473       .  S
C816       C1033   1.471       .  S
C817        C821   1.520       .  S
C818        H825   1.082       .  S
C818        C819   1.376       .  D
C819       C1025   1.498       .  S
C820        C824   1.548       .  S
C820        C822   1.549       .  S
C820        H826   1.111       .  S
C821        H827   1.085       .  S
C821        C822   1.367       .  D
C822       C1021   1.489       .  S
C823        H828   1.086       .  S
O829       Ni837   1.892       .  S
O829        C839   1.273       .  A
O830       Ni837   1.894       .  S
O830        C840   1.275       .  A
O831       Ni837   1.916       .  S
O831        C841   1.282       .  A
O832       Ni837   1.919       .  S
O832        C842   1.284       .  A
O833       Ni838   1.908       .  S
O833        C842   1.277       .  A
O834       Ni838   1.918       .  S
O834        C841   1.280       .  A
O835       Ni838   1.953       .  S
O835        C840   1.288       .  A
O836       Ni838   1.950       .  S
O836        C839   1.289       .  A
Ni837      Ni838   2.389       .  S
C839       C1009   1.475       .  S
C840       C1026   1.479       .  S
C841       C1022   1.472       .  S
C842       C1014   1.472       .  S
O843        C853   1.279       .  A
O844       Ni851   1.924       .  S
O844        C854   1.281       .  A
O845       Ni851   1.930       .  S
O845        C855   1.285       .  A
O846        C856   1.285       .  A
O847        C856   1.278       .  A
O848       Ni852   1.898       .  S
O848        C855   1.275       .  A
O849       Ni852   1.917       .  S
O849        C854   1.283       .  A
O850        C853   1.286       .  A
Ni851      Ni852   2.389       .  S
C853       C1010   1.484       .  S
C854       C1030   1.481       .  S
C855       C1013   1.469       .  S
C856       C1034   1.482       .  S
N857        C862   1.357       .  A
N857        C861   1.358       .  A
N857        H889   1.039       .  S
N858        C865   1.351   1_545  A
N858        C866   1.353       .  A
N859        C864   1.352       .  A
N859        C863   1.353       .  A
N859        H890   1.040       .  S
N860        C867   1.354   1_545  A
N860        C868   1.357       .  A
C861        C869   1.384       .  A
C861        C877   1.417       .  A
C862        C878   1.426       .  A
C862        C870   1.391       .  A
C863        C871   1.385       .  A
C863        C880   1.411       .  A
C864        C879   1.414       .  A
C864        C872   1.388       .  A
C865        C877   1.411       .  A
C865        C873   1.385       .  A
C866        C880   1.410       .  A
C866        C874   1.385       .  A
C867        C875   1.388       .  A
C867        C878   1.422       .  A
C868        C876   1.385       .  A
C868        C879   1.418       .  A
C869        C870   1.374       .  A
C869        H881   1.083       .  S
C870        H882   1.082       .  S
C871        C872   1.370       .  A
C871        H883   1.082       .  S
C872        H884   1.082       .  S
C873        C874   1.364   1_565  A
C873        H885   1.077       .  S
C874        H886   1.081       .  S
C875        C876   1.378   1_565  A
C875        H887   1.082       .  S
C876        H888   1.082       .  S
C877       C1005   1.489       .  S
C878       C1101   1.501       .  S
C879       C1058   1.498       .  S
C880       C1001   1.488       .  S
N891        C896   1.356       .  A
N891        C895   1.356       .  A
N891        H923   1.039       .  S
N892        C899   1.348       .  A
N892        C900   1.352       .  A
N893        C898   1.348       .  A
N893        C897   1.350       .  A
N893        H924   1.042       .  S
N894        C901   1.350       .  A
N894        C902   1.352       .  A
C895        C903   1.387       .  A
C895        C911   1.422       .  A
C896        C912   1.422   1_455  A
C896        C904   1.387       .  A
C897        C905   1.387       .  A
C897        C914   1.409       .  A
C898        C913   1.403   1_455  A
C898        C906   1.385       .  A
C899        C911   1.415       .  A
C899        C907   1.390       .  A
C900        C914   1.405       .  A
C900        C908   1.383       .  A
C901        C909   1.390       .  A
C901        C912   1.416       .  A
C902        C910   1.383       .  A
C902        C913   1.404       .  A
C903        C904   1.384       .  A
C903        H915   1.082       .  S
C904        H916   1.082       .  S
C905        C906   1.376       .  A
C905        H917   1.082       .  S
C906        H918   1.080       .  S
C907        C908   1.371       .  A
C907        H919   1.082       .  S
C908        H920   1.082       .  S
C909        C910   1.370       .  A
C909        H921   1.081       .  S
C910        H922   1.083       .  S
C911       C1018   1.494       .  S
C912       C1145   1.497       .  S
C913        C998   1.475       .  S
C914       C1002   1.484       .  S
N925        C930   1.349       .  A
N925        C929   1.353       .  A
N925        H957   1.042       .  S
N926        C933   1.353       .  A
N926        C934   1.349   1_455  A
N927        C932   1.355       .  A
N927        C931   1.356       .  A
N927        H958   1.039       .  S
N928        C935   1.355       .  A
N928        C936   1.353   1_455  A
C929        C937   1.383       .  A
C929        C945   1.402       .  A
C930        C946   1.415       .  A
C930        C938   1.390       .  A
C931        C939   1.387       .  A
C931        C948   1.416       .  A
C932        C947   1.422       .  A
C932        C940   1.388       .  A
C933        C945   1.409       .  A
C933        C941   1.380       .  A
C934        C948   1.415       .  A
C934        C942   1.387   1_655  A
C935        C943   1.385       .  A
C935        C946   1.417       .  A
C936        C944   1.387   1_655  A
C936        C947   1.419       .  A
C937        C938   1.372       .  A
C937        H949   1.082       .  S
C938        H950   1.082       .  S
C939        C940   1.372       .  A
C939        H951   1.081       .  S
C940        H952   1.082       .  S
C941        C942   1.369       .  A
C941        H953   1.079       .  S
C942        H954   1.079   1_455  S
C943        C944   1.381       .  A
C943        H955   1.082       .  S
C944        H956   1.082   1_455  S
C945       C1006   1.491       .  S
C946       C1037   1.502       .  S
C947       C1173   1.499       .  S
C948        C993   1.487       .  S
N959        C964   1.358       .  A
N959        C963   1.355       .  A
N959        H991   1.040       .  S
N960        C967   1.353       .  A
N960        C968   1.354   1_545  A
N961        C966   1.355       .  A
N961        C965   1.354       .  A
N961        H992   1.037       .  S
N962        C969   1.350       .  A
N962        C970   1.349   1_545  A
C963        C971   1.388       .  A
C963        C979   1.421       .  A
C964        C980   1.416       .  A
C964        C972   1.387       .  A
C965        C973   1.390       .  A
C965        C982   1.420       .  A
C966        C981   1.412       .  A
C966        C974   1.385       .  A
C967        C979   1.420       .  A
C967        C975   1.387       .  A
C968        C982   1.418       .  A
C968        C976   1.385   1_565  A
C969        C977   1.387       .  A
C969        C980   1.414       .  A
C970        C978   1.384   1_565  A
C970        C981   1.408       .  A
C971        C972   1.369       .  A
C971        H983   1.082       .  S
C972        H984   1.081       .  S
C973        C974   1.367       .  A
C973        H985   1.082       .  S
C974        H986   1.083       .  S
C975        C976   1.377       .  A
C975        H987   1.082       .  S
C976        H988   1.082   1_545  S
C977        C978   1.365       .  A
C977        H989   1.076       .  S
C978        H990   1.079   1_545  S
C979       C1082   1.498       .  S
C980        C997   1.489       .  S
C981        C994   1.482       .  S
C982       C1126   1.496       .  S
C993        C994   1.344       .  D
C994        H996   1.087       .  S
C997        C998   1.339       .  D
C998       H1000   1.086       .  S
C1001      H1003   1.086       .  S
C1001      C1002   1.343       .  D
C1005      H1007   1.087       .  S
C1005      C1006   1.345       .  D
C1009      H1011   1.087       .  S
C1009      C1010   1.341       .  D
C1010      H1012   1.086       .  S
C1013      H1015   1.087       .  S
C1013      C1014   1.338       .  D
C1014      H1016   1.087       .  S
C1017      C1018   1.351       .  D
C1018      H1020   1.083       .  S
C1021      H1023   1.086       .  S
C1021      C1022   1.351       .  D
C1022      H1024   1.084       .  S
C1025      H1027   1.085       .  S
C1025      C1026   1.345       .  D
C1026      H1028   1.085       .  S
C1029      H1031   1.087       .  S
C1029      C1030   1.343       .  D
C1030      H1032   1.086       .  S
C1033      H1035   1.087       .  S
C1033      C1034   1.349       .  D
C1034      H1036   1.086       .  S
C1037      C1038   1.353       .  D
C1038      H1040   1.087       .  S
C1041      H1043   1.086       .  S
C1041      C1042   1.348       .  D
C1042      H1044   1.084       .  S
C1045      H1047   1.085       .  S
C1045      C1046   1.350       .  D
C1046      H1048   1.086       .  S
C1049      H1051   1.086       .  S
C1049      C1050   1.344       .  D
C1050      H1052   1.087       .  S
C1053      H1055   1.087       .  S
C1053      C1054   1.348       .  D
C1054      H1056   1.086       .  S
C1057      C1058   1.353       .  D
C1058      H1060   1.084       .  S
C1061      H1063   1.087       .  S
C1061      C1062   1.350       .  D
C1065      H1067   1.086       .  S
C1065      C1066   1.349       .  D
C1066      H1068   1.085       .  S
C1069      H1071   1.085       .  S
C1069      C1070   1.351       .  D
C1070      H1072   1.085       .  S
C1073      H1075   1.087       .  S
C1073      C1074   1.338       .  D
C1074      H1076   1.087       .  S
C1077      H1079   1.087       .  S
C1077      C1078   1.349       .  D
C1078      H1080   1.086       .  S
C1081      H1083   1.088       .  S
C1081      C1082   1.352       .  D
C1085      H1087   1.085       .  S
C1085      C1086   1.353       .  D
C1086      H1088   1.086       .  S
C1089      H1091   1.086       .  S
C1089      C1090   1.345       .  D
C1090      H1092   1.085       .  S
C1093      H1095   1.086       .  S
C1093      C1094   1.354       .  D
C1094      H1096   1.086       .  S
C1097      H1099   1.087       .  S
C1097      C1098   1.332       .  D
C1098      H1100   1.087       .  S
C1101      H1103   1.082       .  S
C1101      C1102   1.352       .  D
C1105      C1106   1.348       .  D
C1106      H1108   1.088       .  S
C1109      H1111   1.086       .  S
C1109      C1110   1.344       .  D
C1110      H1112   1.085       .  S
C1113      H1115   1.086       .  S
C1113      C1114   1.355       .  D
C1114      H1116   1.084       .  S
C1117      H1119   1.087       .  S
C1117      C1118   1.335       .  D
C1118      H1120   1.087       .  S
C1121      H1123   1.087       .  S
C1121      C1122   1.338       .  D
C1122      H1124   1.087       .  S
C1125      C1126   1.348       .  D
C1126      H1128   1.084       .  S
C1129      H1131   1.085       .  S
C1129      C1130   1.346       .  D
C1130      H1132   1.086       .  S
C1133      H1135   1.085       .  S
C1133      C1134   1.357       .  D
C1134      H1136   1.085       .  S
C1137      H1139   1.087       .  S
C1137      C1138   1.337       .  D
C1138      H1140   1.087       .  S
C1141      H1143   1.086       .  S
C1141      C1142   1.356       .  D
C1142      H1144   1.086       .  S
C1145      H1147   1.082       .  S
C1145      C1146   1.353       .  D
C1149      H1151   1.088       .  S
C1149      C1150   1.347       .  D
C1153      H1155   1.085       .  S
C1153      C1154   1.341       .  D
C1154      H1156   1.087       .  S
C1157      H1159   1.086       .  S
C1157      C1158   1.345       .  D
C1158      H1160   1.086       .  S
C1161      H1163   1.087       .  S
C1161      C1162   1.337       .  D
C1162      H1164   1.087       .  S
C1165      H1167   1.086       .  S
C1165      C1166   1.337       .  D
C1166      H1168   1.087       .  S
C1169      C1170   1.348       .  D
C1170      H1172   1.087       .  S
C1173      C1174   1.353       .  D
C1174      H1176   1.088       .  S
C1177      H1179   1.086       .  S
C1177      C1178   1.354       .  D
C1178      H1180   1.084       .  S
C1181      H1183   1.085       .  S
C1181      C1182   1.348       .  D
C1182      H1184   1.085       .  S
