geometry optimzed in LAMMPS
_audit_creation_date              2020-12-01 
_audit_creation_method            'lammps2cif' 
_symmetry_space_group_name_H-M    'P1' 
_symmetry_Int_Tables_number       1 
_symmetry_cell_setting            triclinic 
loop_ 
_symmetry_equiv_pos_as_xyz 
  x,y,z 
_cell_length_a                    32.05974959 
_cell_length_b                    30.726524061458385 
_cell_length_c                    29.452450317247575 
_cell_angle_alpha                 79.03037804238794 
_cell_angle_beta                  74.00255544489636 
_cell_angle_gamma                 95.05286569091079 
loop_ 
_atom_site_label 
_atom_site_type_symbol 
_atom_site_fract_x 
_atom_site_fract_y 
_atom_site_fract_z 
_atom_site_charge 
C1          C  0.38742145  0.15101314  0.35212705     0.03100
C2          C  0.34949641  0.12112400  0.35851063    -0.13000
C3          C  0.31075576  0.11863578  0.39654148     0.00600
C4          C  0.31006750  0.14788453  0.42864048    -0.11600
C5          C  0.34805963  0.17915412  0.42158267     0.03100
C6          C  0.38618470  0.17991630  0.38344780    -0.11000
H7          H  0.35067893  0.09799664  0.33471147     0.08700
H8          H  0.28101892  0.14589762  0.45878015     0.06200
H9          H  0.41586509  0.20208432  0.37925313     0.06100
C10         C  0.40132523  0.34067728  0.09412139     0.03100
C11         C  0.41931659  0.33782802  0.13293945    -0.13000
C12         C  0.41034117  0.36730692  0.16461098     0.00600
C13         C  0.38050358  0.39751632  0.15944041    -0.11600
C14         C  0.36025546  0.39991997  0.12238095     0.03100
C15         C  0.37222211  0.37246047  0.08874573    -0.11000
H16         H  0.44182411  0.31410963  0.13715799     0.08700
H17         H  0.37351218  0.41984862  0.18410291     0.06200
H18         H  0.35713661  0.37415298  0.05989058     0.06100
C19         C  0.12444925  0.33942731  0.37203426     0.03100
C20         C  0.15255497  0.37789630  0.36926879    -0.13000
C21         C  0.14782930  0.42070167  0.34533704     0.00600
C22         C  0.11464293  0.42358614  0.32154350    -0.11600
C23         C  0.08682472  0.38401770  0.32276638     0.03100
C24         C  0.09181562  0.34265380  0.34931180    -0.11000
H25         H  0.17649209  0.37452913  0.38902030     0.08700
H26         H  0.11044474  0.45595676  0.30260932     0.06200
H27         H  0.07024167  0.31230797  0.35249911     0.06100
C28         C  0.18071369  0.08121411  0.12764089     0.03100
C29         C  0.14450736  0.07469465  0.17038652    -0.13000
C30         C  0.10682153  0.09447294  0.16891245     0.00600
C31         C  0.10645743  0.12217326  0.12556699    -0.11600
C32         C  0.14242413  0.13159159  0.08368894     0.03100
C33         C  0.17945588  0.11037937  0.08458437    -0.11000
H34         H  0.14471997  0.05279480  0.20377953     0.08700
H35         H  0.07765353  0.13809551  0.12514518     0.06200
H36         H  0.20696129  0.11629368  0.05193399     0.06100
O37         O  0.42843402  0.13661027  0.27732462    -0.73000
O38         O  0.03010876  0.08758656  0.20250413    -0.73900
O39         O  0.45348329  0.05377343  0.28468784    -0.62600
O40         O  0.50604945  0.17252336  0.19559702    -0.71000
O41         O  0.04293894  0.18491464  0.24656531    -0.70500
O42         O  0.99245747  0.06510443  0.33419274    -0.61800
O43         O  0.07023165  0.10142796  0.25009934    -0.74300
O44         O  0.46503808  0.14873224  0.32874610    -0.73100
Cu45       Cu  0.47836949  0.11202404  0.23837813     1.04600
Cu46       Cu  0.01902837  0.12551386  0.29172524     1.04300
C47         C  0.42929333  0.14679016  0.31709644     0.93200
C48         C  0.06722346  0.09132698  0.21076206     0.92400
C49         C  0.46216679  0.04210118  0.32470219     0.84500
C50         C  0.53468792  0.19684821  0.20634143     0.90800
O51         O  0.10838337  0.18869147  0.04850863    -0.73000
O52         O  0.09474880  0.28555049  0.44558690    -0.73900
O53         O  0.06892439  0.19267358  0.97589553    -0.62600
O54         O  0.13296704  0.28052656  0.01966265    -0.71000
O55         O  0.19451474  0.26609927  0.47062960    -0.70500
O56         O  0.12737017  0.17980919  0.42176076    -0.61800
O57         O  0.15700145  0.27510401  0.39531597    -0.71900
O58         O  0.16779364  0.17232027  0.99930714    -0.73100
Cu59       Cu  0.09912977  0.23700397  0.99885508     1.04600
Cu60       Cu  0.16400163  0.22267668  0.44464027     1.04300
C61         C  0.13978451  0.16549582  0.04141360     0.93200
C62         C  0.12509698  0.29743899  0.40525261     0.92400
C63         C  0.08602612  0.17301470  0.44228644     0.84500
C64         C  0.17443936  0.28613856  0.50248691     0.90800
O65         O  0.29780369  0.43237258  0.16007380    -0.73000
O66         O  0.21805939  0.02785145  0.16566125    -0.73900
O67         O  0.20798299  0.44111744  0.15575283    -0.62600
O68         O  0.30450643  0.52184569  0.16924426    -0.71000
O69         O  0.33166312  0.05069456  0.09011209    -0.70500
O70         O  0.23862737  0.96398017  0.07601213    -0.61800
O71         O  0.24418665  0.05198236  0.08591788    -0.74300
O72         O  0.32798215  0.45814794  0.08101178    -0.73100
Cu73       Cu  0.25679938  0.47949648  0.16527786     1.04600
Cu74       Cu  0.28697714  0.00651754  0.08031990     1.04300
C75         C  0.32674329  0.43113428  0.12058151     0.93200
C76         C  0.21675774  0.05330697  0.12645823     0.92400
C77         C  0.20551097  0.94602315  0.11271903     0.84500
C78         C  0.33045543  0.05112273  0.13356600     0.90800
O79         O  0.43733900  0.33617690  0.23062617    -0.73000
O80         O  0.02543885  0.34727227  0.30554106    -0.73900
O81         O  0.43598719  0.35612307  0.32319274    -0.62600
O82         O  0.52409619  0.32421296  0.21848814    -0.71000
O83         O  0.04894423  0.39420038  0.17616806    -0.70500
O84         O  0.96020988  0.42758338  0.28556367    -0.61800
O85         O  0.05043166  0.41765538  0.26582353    -0.74300
O86         O  0.45992646  0.40789875  0.19403576    -0.73100
Cu87       Cu  0.47981605  0.33864904  0.27072883     1.04600
Cu88       Cu  0.00528977  0.41462123  0.22912217     1.04300
C89         C  0.43638846  0.37055993  0.19875186     0.93200
C90         C  0.05244304  0.38344174  0.29705259     0.92400
C91         C  0.43603821  0.39754807  0.32218050     0.84500
C92         C  0.54965057  0.35205144  0.18154083     0.90800
O93         O  0.28605797  0.52265868  0.31584636    -0.73000
O94         O  0.20836663  0.47327470  0.44848797    -0.73900
O95         O  0.21223336  0.45295982  0.35985497    -0.62600
O96         O  0.28232264  0.04280130  0.40368153    -0.71000
O97         O  0.23836293  0.09293403  0.39233290    -0.70500
O98         O  0.16465202  0.49910629  0.34992157    -0.61800
O99         O  0.16219922  0.02198760  0.44073836    -0.74300
O100        O  0.24095458  0.07116699  0.30331474    -0.73100
Cu101      Cu  0.24837400  0.49629977  0.38244323     1.04600
Cu102      Cu  0.19960521  0.04802997  0.37121158     1.04300
C103        C  0.27758668  0.05665221  0.28952930     0.93200
C104        C  0.17299443  0.98850085  0.46572217     0.92400
C105        C  0.17647380  0.46015125  0.35038552     0.84500
C106        C  0.27404952  0.08302992  0.40067992     0.90800
O107        O  0.37353656  0.24864262  0.43616313    -0.73000
O108        O  0.42056423  0.32234661  0.01591538    -0.73900
O109        O  0.45172354  0.25574442  0.45723019    -0.62600
O110        O  0.34574798  0.31312348  0.49249255    -0.71000
O111        O  0.31759027  0.25837366  0.05791321    -0.70500
O112        O  0.42275680  0.19918935  0.02060940    -0.61800
O113        O  0.39412904  0.26599379  0.08032293    -0.74300
O114        O  0.34307612  0.19304824  0.50057216    -0.73100
Cu115      Cu  0.39928533  0.28671005  0.47334806     1.04600
Cu116      Cu  0.36883643  0.22726412  0.04222503     1.04300
C117        C  0.35287475  0.20879254  0.45486237     0.93200
C118        C  0.40796955  0.30785848  0.06198956     0.92400
C119        C  0.45101266  0.21555777  0.47940578     0.84500
C120        C  0.31597821  0.29603295  0.53228206     0.90800
C121        C  0.14725245  0.96729031  0.51597851    -0.05500
C122        C  0.14990671  0.92178668  0.53178472    -0.32900
C123        C  0.15899300  0.90826440  0.07535211     0.36300
C124        C  0.16305273  0.93907606  0.10346120    -0.05800
C125        C  0.14428264  0.47830451  0.09553872    -0.32800
C126        C  0.13804692  0.49361314  0.55060514     0.36200
H127        H  0.15415785  0.89992446  0.50650344     0.16600
O128        O  0.17195644  0.86754138  0.08581180    -0.60300
H129        H  0.14375287  0.50113535  0.11930035     0.16600
O130        O  0.13250893  0.53748513  0.53747232    -0.60400
H131        H  0.10097096  0.53822228  0.55273125     0.43600
H132        H  0.20369208  0.87353882  0.08225146     0.43600
C133        C  0.35333366  0.08864439  0.14566728    -0.05500
C134        C  0.37563913  0.57346956  0.17877515    -0.32900
C135        C  0.35208878  0.56400020  0.22814387     0.36300
C136        C  0.31042642  0.07828575  0.24256741    -0.05800
C137        C  0.29926645  0.11024537  0.20857312    -0.32800
C138        C  0.32369235  0.11835817  0.15942563     0.36200
H139        H  0.40403933  0.55702914  0.16737585     0.16600
O140        O  0.36768871  0.53720449  0.26053846    -0.60300
H141        H  0.26959503  0.12505223  0.21884279     0.16600
O142        O  0.30805601  0.14293365  0.12546056    -0.60400
H143        H  0.31969379  0.17453552  0.12295868     0.43600
H144        H  0.36195325  0.50637161  0.25573787     0.43600
C145        C  0.05500905  0.14805776  0.42472727    -0.05500
C146        C  0.04325019  0.17829131  0.89031973    -0.32900
C147        C  0.50823164  0.20143362  0.90704247     0.36300
C148        C  0.48147437  0.18723292  0.45590425    -0.05800
C149        C  0.48405851  0.14432492  0.48162152    -0.32800
C150        C  0.01973253  0.12255042  0.46339808     0.36200
H151        H  0.06712853  0.19282350  0.85538648     0.16600
O152        O  0.50313851  0.23945334  0.87725319    -0.60300
H153        H  0.46119985  0.12966403  0.51711806     0.16600
O154        O  0.02654856  0.08513257  0.49252478    -0.60400
H155        H  0.02451395  0.06085798  0.47500400     0.43600
H156        H  0.49530862  0.22932216  0.85021957     0.43600
C157        C  0.27736046  0.31789289  0.54576306    -0.05500
C158        C  0.27158023  0.35097963  0.50889445    -0.32900
C159        C  0.23309350  0.34544485  0.49636372     0.36300
C160        C  0.20002946  0.31018907  0.52476886    -0.05800
C161        C  0.20141398  0.28760423  0.07009865    -0.32800
C162        C  0.24036721  0.29273970  0.08172055     0.36200
H163        H  0.29939385  0.37393455  0.48338254     0.16600
O164        O  0.23002070  0.37056442  0.45390661    -0.60300
H165        H  0.17477820  0.26177994  0.09319422     0.16600
O166        O  0.24417847  0.26675303  0.12346927    -0.60400
H167        H  0.23873828  0.23514315  0.12089143     0.43600
H168        H  0.24656046  0.35683056  0.42794503     0.43600
C169        C  0.41338624  0.41203903  0.36570470    -0.05500
C170        C  0.94316222  0.42443781  0.38985435    -0.32900
C171        C  0.95763775  0.97012928  0.38325980     0.36300
C172        C  0.43692114  0.00097445  0.35874269    -0.05800
C173        C  0.39536839  0.98636933  0.35522863    -0.32800
C174        C  0.38290565  0.44076787  0.35940781     0.36200
H175        H  0.96390864  0.40083334  0.40028940     0.16600
O176        O  0.99616366  0.98340260  0.39187473    -0.60300
H177        H  0.37633204  0.01022250  0.34179720     0.16600
O178        O  0.34867505  0.42726432  0.34339057    -0.60400
H179        H  0.32222119  0.42300907  0.37170312     0.43600
H180        H  0.98725512  0.99482212  0.42189574     0.43600
C181        C  0.55821357  0.23975438  0.17344059    -0.05500
C182        C  0.09459741  0.26108488  0.18282462    -0.32900
C183        C  0.10632630  0.30759892  0.16725391     0.36300
C184        C  0.57850866  0.33196832  0.14639939    -0.05800
C185        C  0.55489615  0.30988949  0.12154716    -0.32800
C186        C  0.54183390  0.26338190  0.13771212     0.36200
H187        H  0.11028177  0.24295876  0.20719220     0.16600
O188        O  0.13404870  0.32903388  0.18694437    -0.60300
H189        H  0.53691332  0.32880757  0.10046514     0.16600
O190        O  0.50885539  0.24323569  0.12400565    -0.60400
H191        H  0.52403201  0.23194069  0.09538631     0.43600
H192        H  0.16306753  0.31970950  0.17424177     0.43600
C193        C  0.38739804  0.15129911  0.85187797     0.03100
C194        C  0.34941519  0.12157673  0.85809208    -0.13000
C195        C  0.31071243  0.11898671  0.89618890     0.00600
C196        C  0.31008055  0.14805373  0.92847232    -0.11600
C197        C  0.34811035  0.17924666  0.92151357     0.03100
C198        C  0.38622853  0.18003400  0.88336016    -0.11000
H199        H  0.35054991  0.09857375  0.83416515     0.08700
H200        H  0.28104758  0.14600005  0.95865137     0.06200
H201        H  0.41594890  0.20209651  0.87926221     0.06100
C202        C  0.40131155  0.34043713  0.59415218     0.03100
C203        C  0.41935012  0.33765342  0.63291727    -0.13000
C204        C  0.41043318  0.36720091  0.66450406     0.00600
C205        C  0.38061753  0.39743836  0.65929391    -0.11600
C206        C  0.36029868  0.39977046  0.62229203     0.03100
C207        C  0.37220636  0.37221837  0.58874076    -0.11000
H208        H  0.44185139  0.31393150  0.63715633     0.08700
H209        H  0.37367088  0.41982053  0.68390476     0.06200
H210        H  0.35708820  0.37385181  0.55991746     0.06100
C211        C  0.12430772  0.33961550  0.87214704     0.03100
C212        C  0.15245154  0.37811544  0.86922942    -0.13000
C213        C  0.14762906  0.42090596  0.84533460     0.00600
C214        C  0.11433379  0.42372900  0.82170379    -0.11600
C215        C  0.08651172  0.38412510  0.82304457     0.03100
C216        C  0.09155517  0.34279744  0.84959936    -0.11000
H217        H  0.17649085  0.37478711  0.88884725     0.08700
H218        H  0.11008586  0.45607449  0.80275990     0.06200
H219        H  0.06996413  0.31243507  0.85288015     0.06100
C220        C  0.18038281  0.08079917  0.62755420     0.03100
C221        C  0.14415837  0.07428755  0.67028965    -0.13000
C222        C  0.10644255  0.09401404  0.66877765     0.00600
C223        C  0.10605911  0.12162269  0.62538267    -0.11600
C224        C  0.14210058  0.13114514  0.58357158     0.03100
C225        C  0.17914590  0.10997586  0.58450444    -0.11000
H226        H  0.14439253  0.05245030  0.70370976     0.08700
H227        H  0.07723697  0.13749590  0.62490063     0.06200
H228        H  0.20669701  0.11595860  0.55188992     0.06100
O229        O  0.42837037  0.13680697  0.77713085    -0.73000
O230        O  0.02974909  0.08730780  0.70249826    -0.73900
O231        O  0.45319169  0.05382657  0.78487292    -0.62600
O232        O  0.50598708  0.17239476  0.69533420    -0.71000
O233        O  0.04279665  0.18475670  0.74638283    -0.70500
O234        O  0.99238989  0.06511896  0.83418145    -0.61800
O235        O  0.07001901  0.10126150  0.74991100    -0.74300
O236        O  0.46496843  0.14876309  0.82860859    -0.73100
Cu237      Cu  0.47816153  0.11197631  0.73831657     1.04600
Cu238      Cu  0.01890796  0.12545022  0.79158844     1.04300
C239        C  0.42924961  0.14697286  0.81690021     0.93200
C240        C  0.06690416  0.09103477  0.71066127     0.92400
C241        C  0.46199239  0.04214716  0.82482520     0.84500
C242        C  0.53463895  0.19667482  0.70611453     0.90800
O243        O  0.10824036  0.18845046  0.54845189    -0.73000
O244        O  0.09468637  0.28569060  0.94567686    -0.73900
O245        O  0.06883192  0.19255515  0.47580021    -0.62600
O246        O  0.13304108  0.28030061  0.51956946    -0.71000
O247        O  0.19446848  0.26637683  0.97072056    -0.70500
O248        O  0.12745837  0.17999517  0.92180629    -0.61800
O249        O  0.15697682  0.27535275  0.89538722    -0.71900
O250        O  0.16763754  0.17203145  0.49926860    -0.73100
Cu251      Cu  0.09910780  0.23683028  0.49877721     1.04600
Cu252      Cu  0.16404582  0.22292948  0.94469296     1.04300
C253        C  0.13957750  0.16517673  0.54134682     0.93200
C254        C  0.12503522  0.29763928  0.90534668     0.92400
C255        C  0.08611877  0.17313335  0.94238524     0.84500
C256        C  0.17436399  0.28638854  0.00259174     0.90800
O257        O  0.29784067  0.43223006  0.66001853    -0.73000
O258        O  0.21781705  0.02752295  0.66557924    -0.73900
O259        O  0.20791805  0.44070678  0.65585904    -0.62600
O260        O  0.30434735  0.52177519  0.66907752    -0.71000
O261        O  0.33149798  0.05049311  0.58987013    -0.70500
O262        O  0.23839284  0.96359310  0.57605866    -0.61800
O263        O  0.24393342  0.05164654  0.58583665    -0.74300
O264        O  0.32787189  0.45789913  0.58092542    -0.73100
Cu265      Cu  0.25670149  0.47926132  0.66523008     1.04600
Cu266      Cu  0.28678359  0.00620276  0.58022569     1.04300
C267        C  0.32673714  0.43095748  0.62050528     0.93200
C268        C  0.21647874  0.05294694  0.62637591     0.92400
C269        C  0.20537121  0.94555724  0.61284665     0.84500
C270        C  0.33029090  0.05108972  0.63329137     0.90800
O271        O  0.43737924  0.33607673  0.73056378    -0.73000
O272        O  0.02521159  0.34727188  0.80577609    -0.73900
O273        O  0.43582221  0.35614044  0.82312927    -0.62600
O274        O  0.52413788  0.32402530  0.71874463    -0.71000
O275        O  0.04905884  0.39398998  0.67638672    -0.70500
O276        O  0.96006458  0.42758038  0.78541465    -0.61800
O277        O  0.05021365  0.41764322  0.76600499    -0.74300
O278        O  0.46005943  0.40776665  0.69388415    -0.73100
Cu279      Cu  0.47973256  0.33857676  0.77081991     1.04600
Cu280      Cu  0.00526369  0.41452336  0.72913358     1.04300
C281        C  0.43648539  0.37044531  0.69863588     0.93200
C282        C  0.05217497  0.38346935  0.79730275     0.92400
C283        C  0.43589796  0.39757481  0.82207099     0.84500
C284        C  0.54978038  0.35183939  0.68183696     0.90800
O285        O  0.28586291  0.52295382  0.81549855    -0.73000
O286        O  0.20838777  0.47352531  0.94819155    -0.73900
O287        O  0.21210756  0.45323560  0.85962008    -0.62600
O288        O  0.28240834  0.04316079  0.90316026    -0.71000
O289        O  0.23835340  0.09322274  0.89192818    -0.70500
O290        O  0.16451098  0.49937344  0.84972332    -0.61800
O291        O  0.16229282  0.02222427  0.94031944    -0.74300
O292        O  0.24092915  0.07145267  0.80290642    -0.73100
Cu293      Cu  0.24830103  0.49657657  0.88211932     1.04600
Cu294      Cu  0.19963340  0.04828817  0.87080914     1.04300
C295        C  0.27755416  0.05693899  0.78908745     0.93200
C296        C  0.17315615  0.98880669  0.96532822     0.92400
C297        C  0.17631534  0.46040392  0.85022911     0.84500
C298        C  0.27405710  0.08335832  0.90025551     0.90800
O299        O  0.37358885  0.24872692  0.93610639    -0.73000
O300        O  0.42058909  0.32210829  0.51598915    -0.73900
O301        O  0.45180304  0.25591068  0.95714944    -0.62600
O302        O  0.34575830  0.31324692  0.99235294    -0.71000
O303        O  0.31760513  0.25822287  0.55802949    -0.70500
O304        O  0.42265547  0.19894255  0.52060033    -0.61800
O305        O  0.39414938  0.26573901  0.58038397    -0.74300
O306        O  0.34318188  0.19313156  0.00052483    -0.73100
Cu307      Cu  0.39931661  0.28686364  0.97325625     1.04600
Cu308      Cu  0.36879305  0.22707770  0.54228060     1.04300
C309        C  0.35295067  0.20886722  0.95481392     0.93200
C310        C  0.40798412  0.30760711  0.56205380     0.92400
C311        C  0.45111604  0.21575367  0.97940270     0.84500
C312        C  0.31597800  0.29617906  0.03213870     0.90800
C313        C  0.14748599  0.96770135  0.01562117    -0.05500
C314        C  0.15012784  0.92221650  0.03154594    -0.32900
C315        C  0.15880690  0.90774230  0.57555670     0.36300
C316        C  0.16283742  0.93847184  0.60376873    -0.05800
C317        C  0.14400219  0.47769545  0.59595867    -0.32800
C318        C  0.13815760  0.49402953  0.05023717     0.36200
H319        H  0.15436751  0.90028208  0.00633970     0.16600
O320        O  0.17176848  0.86700026  0.58591369    -0.60300
H321        H  0.14338437  0.50040980  0.61985519     0.16600
O322        O  0.13251260  0.53785363  0.03699363    -0.60400
H323        H  0.10099001  0.53855735  0.05237145     0.43600
H324        H  0.20345514  0.87297359  0.58260633     0.43600
C325        C  0.35318568  0.08871029  0.64524671    -0.05500
C326        C  0.37539286  0.57358722  0.67849627    -0.32900
C327        C  0.35186967  0.56426473  0.72786865     0.36300
C328        C  0.31036665  0.07858276  0.74212306    -0.05800
C329        C  0.29914503  0.11042936  0.70807969    -0.32800
C330        C  0.32355904  0.11845927  0.65893829     0.36200
H331        H  0.40378716  0.55712292  0.66715920     0.16600
O332        O  0.36750212  0.53761894  0.76035798    -0.60300
H333        H  0.26945838  0.12521863  0.71832075     0.16600
O334        O  0.30796983  0.14304128  0.62493824    -0.60400
H335        H  0.31974061  0.17463136  0.62233360     0.43600
H336        H  0.36183190  0.50673491  0.75566256     0.43600
C337        C  0.05508219  0.14807763  0.92492510    -0.05500
C338        C  0.04319852  0.17837738  0.39019260    -0.32900
C339        C  0.50814631  0.20144875  0.40697438     0.36300
C340        C  0.48158966  0.18737224  0.95600013    -0.05800
C341        C  0.48416699  0.14451491  0.98184959    -0.32800
C342        C  0.01980717  0.12266038  0.96367353     0.36200
H343        H  0.06710258  0.19302209  0.35530558     0.16600
O344        O  0.50305276  0.23954618  0.37730330    -0.60300
H345        H  0.46132691  0.12995169  0.01738185     0.16600
O346        O  0.02661711  0.08531869  0.99292457    -0.60400
H347        H  0.02505622  0.06106807  0.97526674     0.43600
H348        H  0.49510535  0.22949654  0.35029026     0.43600
C349        C  0.27738750  0.31808958  0.04558962    -0.05500
C350        C  0.27160676  0.35113742  0.00868674    -0.32900
C351        C  0.23304997  0.34566279  0.99628811     0.36300
C352        C  0.19994283  0.31050522  0.02482727    -0.05800
C353        C  0.20145402  0.28721848  0.57002852    -0.32800
C354        C  0.24033416  0.29241265  0.58177874     0.36200
H355        H  0.29943260  0.37399362  0.98306505     0.16600
O356        O  0.22997292  0.37065636  0.95376905    -0.60300
H357        H  0.17484078  0.26132425  0.59302794     0.16600
O358        O  0.24411079  0.26633061  0.62349533    -0.60400
H359        H  0.23873884  0.23474689  0.62080187     0.43600
H360        H  0.24640850  0.35676921  0.92788854     0.43600
C361        C  0.41336580  0.41209598  0.86561794    -0.05500
C362        C  0.94322169  0.42443872  0.88968298    -0.32900
C363        C  0.95757363  0.97019470  0.88335574     0.36300
C364        C  0.43678818  0.00103462  0.85892634    -0.05800
C365        C  0.39523978  0.98640015  0.85542993    -0.32800
C366        C  0.38284350  0.44081593  0.85947940     0.36200
H367        H  0.96403231  0.40083906  0.89996989     0.16600
O368        O  0.99602040  0.98350385  0.89212095    -0.60300
H369        H  0.37618117  0.01023403  0.84198684     0.16600
O370        O  0.34854460  0.42733846  0.84356037    -0.60400
H371        H  0.32219045  0.42266693  0.87206462     0.43600
H372        H  0.98700115  0.99484527  0.92217853     0.43600
C373        C  0.55832440  0.23953045  0.67325157    -0.05500
C374        C  0.09468899  0.26069100  0.68281631    -0.32900
C375        C  0.10639120  0.30721513  0.66759945     0.36300
C376        C  0.57866887  0.33173626  0.64674238    -0.05800
C377        C  0.55514763  0.30987334  0.62165105    -0.32800
C378        C  0.54205007  0.26335352  0.63755151     0.36200
H379        H  0.11031567  0.24241119  0.70714884     0.16600
O380        O  0.13403360  0.32843447  0.68753923    -0.60300
H381        H  0.53722674  0.32892787  0.60059935     0.16600
O382        O  0.50910525  0.24337371  0.62366905    -0.60400
H383        H  0.52428628  0.23311303  0.59431697     0.43600
H384        H  0.16315035  0.31943048  0.67448683     0.43600
C385        C  0.38739081  0.65100126  0.35211354     0.03100
C386        C  0.34945907  0.62113875  0.35846078    -0.13000
C387        C  0.31074014  0.61859054  0.39654075     0.00600
C388        C  0.31006004  0.64777914  0.42869955    -0.11600
C389        C  0.34804991  0.67903995  0.42166561     0.03100
C390        C  0.38617044  0.67982928  0.38351087    -0.11000
H391        H  0.35062851  0.59805855  0.33461261     0.08700
H392        H  0.28101738  0.64575952  0.45885686     0.06200
H393        H  0.41585720  0.70197781  0.37934029     0.06100
C394        C  0.40141315  0.84083353  0.09397415     0.03100
C395        C  0.41938527  0.83794037  0.13281316    -0.13000
C396        C  0.41038163  0.86737396  0.16453386     0.00600
C397        C  0.38054485  0.89758799  0.15937046    -0.11600
C398        C  0.36031090  0.90001427  0.12229571     0.03100
C399        C  0.37230689  0.87260698  0.08862025    -0.11000
H400        H  0.44188001  0.81420692  0.13702707     0.08700
H401        H  0.37352444  0.91988779  0.18406547     0.06200
H402        H  0.35721630  0.87430780  0.05976744     0.06100
C403        C  0.12451095  0.83940123  0.37193632     0.03100
C404        C  0.15260113  0.87788316  0.36919177    -0.13000
C405        C  0.14782497  0.92070162  0.34532862     0.00600
C406        C  0.11461139  0.92357652  0.32156893    -0.11600
C407        C  0.08682764  0.88399427  0.32275096     0.03100
C408        C  0.09187491  0.84262381  0.34922117    -0.11000
H409        H  0.17654650  0.87451585  0.38893221     0.08700
H410        H  0.11036431  0.95595048  0.30269210     0.06200
H411        H  0.07032308  0.81227107  0.35237994     0.06100
C412        C  0.18072409  0.58124900  0.12761703     0.03100
C413        C  0.14452792  0.57473223  0.17037651    -0.13000
C414        C  0.10683741  0.59451406  0.16892493     0.00600
C415        C  0.10646384  0.62222661  0.12559259    -0.11600
C416        C  0.14242030  0.63164878  0.08370734     0.03100
C417        C  0.17945576  0.61043031  0.08457636    -0.11000
H418        H  0.14474610  0.55282201  0.20376066     0.08700
H419        H  0.07765788  0.63814988  0.12518600     0.06200
H420        H  0.20695135  0.61634445  0.05191645     0.06100
O421        O  0.42842180  0.63664637  0.27727769    -0.73000
O422        O  0.03011671  0.58757973  0.20252065    -0.73900
O423        O  0.45343656  0.55379598  0.28467259    -0.62600
O424        O  0.50608936  0.67251343  0.19556493    -0.71000
O425        O  0.04293074  0.68493212  0.24657111    -0.70500
O426        O  0.99241780  0.56510426  0.33417281    -0.61800
O427        O  0.07022981  0.60145792  0.25011255    -0.74300
O428        O  0.46500325  0.64873046  0.32873041    -0.73100
Cu429      Cu  0.47836834  0.61203429  0.23835923     1.04600
Cu430      Cu  0.01900475  0.62552413  0.29172516     1.04300
C431        C  0.42926557  0.64679974  0.31706780     0.93200
C432        C  0.06723218  0.59134456  0.21077779     0.92400
C433        C  0.46211485  0.54211619  0.32468790     0.84500
C434        C  0.53472369  0.69683944  0.20631291     0.90800
O435        O  0.10833284  0.68870850  0.04852002    -0.73000
O436        O  0.09471932  0.78550106  0.44547163    -0.73900
O437        O  0.06892559  0.69277233  0.97588016    -0.62600
O438        O  0.13293692  0.78052940  0.01971236    -0.71000
O439        O  0.19455309  0.76611754  0.47062915    -0.70500
O440        O  0.12728427  0.67980194  0.42188762    -0.61800
O441        O  0.15705431  0.77509943  0.39531356    -0.71900
O442        O  0.16779616  0.67239358  0.99934907    -0.73100
Cu443      Cu  0.09912195  0.73705460  0.99886302     1.04600
Cu444      Cu  0.16399086  0.72268838  0.44468620     1.04300
C445        C  0.13976306  0.66554541  0.04143973     0.93200
C446        C  0.12512603  0.79741174  0.40517975     0.92400
C447        C  0.08594664  0.67292304  0.44248708     0.84500
C448        C  0.17448577  0.78626138  0.50238564     0.90800
O449        O  0.29781175  0.93236958  0.16002817    -0.73000
O450        O  0.21807164  0.52788244  0.16562413    -0.73900
O451        O  0.20796947  0.94111754  0.15574293    -0.62600
O452        O  0.30451006  0.02180277  0.16926093    -0.71000
O453        O  0.33166300  0.55070903  0.09009138    -0.70500
O454        O  0.23864958  0.46392370  0.07601871    -0.61800
O455        O  0.24418046  0.55197332  0.08587638    -0.74300
O456        O  0.32797288  0.95818645  0.08096714    -0.73100
Cu457      Cu  0.25679522  0.97947292  0.16527967     1.04600
Cu458      Cu  0.28698583  0.50649624  0.08031575     1.04300
C459        C  0.32676050  0.93117593  0.12052612     0.93200
C460        C  0.21676378  0.55332538  0.12641766     0.92400
C461        C  0.20553643  0.44596482  0.11272866     0.84500
C462        C  0.33044601  0.55116309  0.13354286     0.90800
O463        O  0.43736825  0.83616073  0.23054893    -0.73000
O464        O  0.02536765  0.84726096  0.30562307    -0.73900
O465        O  0.43590328  0.85611633  0.32316519    -0.62600
O466        O  0.52412404  0.82415944  0.21855034    -0.71000
O467        O  0.04888262  0.89413901  0.17616353    -0.70500
O468        O  0.96025237  0.92757077  0.28559708    -0.61800
O469        O  0.05045123  0.91759760  0.26578866    -0.74300
O470        O  0.45988244  0.90792067  0.19409539    -0.73100
Cu471      Cu  0.47978548  0.83862243  0.27074552     1.04600
Cu472      Cu  0.00527854  0.91458697  0.22913678     1.04300
C473        C  0.43639254  0.87057748  0.19872520     0.93200
C474        C  0.05242103  0.88341024  0.29707113     0.92400
C475        C  0.43602516  0.89754324  0.32219113     0.84500
C476        C  0.54963520  0.85199655  0.18156841     0.90800
O477        O  0.28601327  0.02270421  0.31587437    -0.73000
O478        O  0.20834570  0.97332040  0.44851773    -0.73900
O479        O  0.21220346  0.95298902  0.35989212    -0.62600
O480        O  0.28233849  0.54275487  0.40366084    -0.71000
O481        O  0.23836559  0.59287933  0.39232560    -0.70500
O482        O  0.16461734  0.99912274  0.34994759    -0.61800
O483        O  0.16222299  0.52194715  0.44071261    -0.74300
O484        O  0.24099352  0.57112140  0.30330589    -0.73100
Cu485      Cu  0.24834522  0.99634510  0.38247217     1.04600
Cu486      Cu  0.19963166  0.54798834  0.37119244     1.04300
C487        C  0.27762879  0.55661349  0.28951353     0.93200
C488        C  0.17302352  0.48846597  0.46569795     0.92400
C489        C  0.17644549  0.96016685  0.35041197     0.84500
C490        C  0.27405088  0.58297829  0.40067217     0.90800
O491        O  0.37354272  0.74853294  0.43620625    -0.73000
O492        O  0.42054969  0.82244866  0.01578985    -0.73900
O493        O  0.45172711  0.75574384  0.45723999    -0.62600
O494        O  0.34571574  0.81303276  0.49247495    -0.71000
O495        O  0.31753133  0.75832843  0.05789899    -0.70500
O496        O  0.42287384  0.69940264  0.02062166    -0.61800
O497        O  0.39410044  0.76615248  0.08025609    -0.74300
O498        O  0.34301496  0.69299946  0.50065866    -0.73100
Cu499      Cu  0.39926894  0.78666307  0.47334490     1.04600
Cu500      Cu  0.36887369  0.72733344  0.04221189     1.04300
C501        C  0.35285387  0.70869815  0.45493480     0.93200
C502        C  0.40798507  0.80799784  0.06187120     0.92400
C503        C  0.45099348  0.71555221  0.47941129     0.84500
C504        C  0.31597738  0.79599671  0.53230427     0.90800
C505        C  0.14730364  0.46728371  0.51596575    -0.05500
C506        C  0.14990343  0.42176658  0.53177615    -0.32900
C507        C  0.15898531  0.40817607  0.07538366     0.36300
C508        C  0.16307751  0.43899711  0.10347803    -0.05800
C509        C  0.14427852  0.97839452  0.09548719    -0.32800
C510        C  0.13792336  0.99360054  0.55062956     0.36200
H511        H  0.15410596  0.39989879  0.50650144     0.16600
O512        O  0.17190411  0.36742904  0.08585061    -0.60300
H513        H  0.14370428  0.00121155  0.11926852     0.16600
O514        O  0.13225630  0.03743270  0.53751935    -0.60400
H515        H  0.10068145  0.03805884  0.55272174     0.43600
H516        H  0.20360665  0.37338455  0.08245568     0.43600
C517        C  0.35332163  0.58869446  0.14563599    -0.05500
C518        C  0.37561717  0.07341803  0.17884032    -0.32900
C519        C  0.35205407  0.06400827  0.22820149     0.36300
C520        C  0.31046289  0.57827317  0.24255591    -0.05800
C521        C  0.29928441  0.61025848  0.20860139    -0.32800
C522        C  0.32366719  0.61838507  0.15944140     0.36200
H523        H  0.40401319  0.05696149  0.16747907     0.16600
O524        O  0.36765640  0.03728520  0.26064850    -0.60300
H525        H  0.26961285  0.62505810  0.21890751     0.16600
O526        O  0.30796311  0.64293408  0.12552394    -0.60400
H527        H  0.31988510  0.67451702  0.12272005     0.43600
H528        H  0.36197277  0.00642687  0.25587999     0.43600
C529        C  0.05494026  0.64796180  0.42489284    -0.05500
C530        C  0.04324519  0.67828238  0.89038752    -0.32900
C531        C  0.50831843  0.70154251  0.90707040     0.36300
C532        C  0.48144283  0.68722133  0.45593497    -0.05800
C533        C  0.48393519  0.64429052  0.48165462    -0.32800
C534        C  0.01959760  0.62249334  0.46345802     0.36200
H535        H  0.06712252  0.69274459  0.85543586     0.16600
O536        O  0.50332583  0.73959771  0.87725867    -0.60300
H537        H  0.46099479  0.62959530  0.51709462     0.16600
O538        O  0.02628529  0.58487484  0.49235921    -0.60400
H539        H  0.01355427  0.55945549  0.48169304     0.43600
H540        H  0.49528307  0.72946285  0.85033879     0.43600
C541        C  0.27737346  0.81787870  0.54576219    -0.05500
C542        C  0.27164467  0.85099721  0.50888721    -0.32900
C543        C  0.23317846  0.84551231  0.49630898     0.36300
C544        C  0.20006817  0.81029302  0.52469449    -0.05800
C545        C  0.20134374  0.78767760  0.07011835    -0.32800
C546        C  0.24030388  0.79275893  0.08173438     0.36200
H547        H  0.29948456  0.87393533  0.48339971     0.16600
O548        O  0.23017475  0.87063534  0.45381994    -0.60300
H549        H  0.17468086  0.76189013  0.09323084     0.16600
O550        O  0.24409436  0.76675866  0.12348552    -0.60400
H551        H  0.23864215  0.73515153  0.12089908     0.43600
H552        H  0.24667570  0.85684528  0.42789412     0.43600
C553        C  0.41339428  0.91203449  0.36572341    -0.05500
C554        C  0.94319671  0.92440903  0.38985317    -0.32900
C555        C  0.95756719  0.47016381  0.38327372     0.36300
C556        C  0.43686313  0.50098775  0.35872436    -0.05800
C557        C  0.39532702  0.48635875  0.35518149    -0.32800
C558        C  0.38293171  0.94079056  0.35943310     0.36200
H559        H  0.96393518  0.90078745  0.40027159     0.16600
O560        O  0.99605228  0.48346993  0.39195228    -0.60300
H561        H  0.37628766  0.51019697  0.34173026     0.16600
O562        O  0.34869920  0.92733710  0.34339815    -0.60400
H563        H  0.32243398  0.92173865  0.37211548     0.43600
H564        H  0.98706627  0.49450559  0.42220781     0.43600
C565        C  0.55828212  0.73971976  0.17338201    -0.05500
C566        C  0.09465079  0.76106296  0.18278558    -0.32900
C567        C  0.10635783  0.80757986  0.16721927     0.36300
C568        C  0.57849988  0.83193179  0.14640386    -0.05800
C569        C  0.55490405  0.80985215  0.12153544    -0.32800
C570        C  0.54192082  0.76333145  0.13762767     0.36200
H571        H  0.11033469  0.74294456  0.20715861     0.16600
O572        O  0.13409910  0.82902780  0.18687721    -0.60300
H573        H  0.53690481  0.82875769  0.10046504     0.16600
O574        O  0.50903721  0.74314527  0.12381082    -0.60400
H575        H  0.52431070  0.73125253  0.09567951     0.43600
H576        H  0.16311828  0.81971588  0.17414496     0.43600
C577        C  0.38741798  0.65118423  0.85192126     0.03100
C578        C  0.34944424  0.62141296  0.85819349    -0.13000
C579        C  0.31074496  0.61882598  0.89630546     0.00600
C580        C  0.31012665  0.64791459  0.92856595    -0.11600
C581        C  0.34815271  0.67912303  0.92157984     0.03100
C582        C  0.38625756  0.67992032  0.88340565    -0.11000
H583        H  0.35057159  0.59840459  0.83427333     0.08700
H584        H  0.28109635  0.64587755  0.95874253     0.06200
H585        H  0.41596817  0.70201435  0.87927456     0.06100
C586        C  0.40135276  0.84044141  0.59412084     0.03100
C587        C  0.41935051  0.83760386  0.63292461    -0.13000
C588        C  0.41042400  0.86712409  0.66454235     0.00600
C589        C  0.38061271  0.89737682  0.65932439    -0.11600
C590        C  0.36033003  0.89976390  0.62227875     0.03100
C591        C  0.37227024  0.87224550  0.58869830    -0.11000
H592        H  0.44183801  0.81386680  0.63716378     0.08700
H593        H  0.37365211  0.91973871  0.68395533     0.06200
H594        H  0.35718279  0.87391238  0.55984700     0.06100
C595        C  0.12440480  0.83962268  0.87208947     0.03100
C596        C  0.15257867  0.87810448  0.86915648    -0.13000
C597        C  0.14777093  0.92089898  0.84526440     0.00600
C598        C  0.11445031  0.92374638  0.82166685    -0.11600
C599        C  0.08659798  0.88415825  0.82302692     0.03100
C600        C  0.09165065  0.84282216  0.84955083    -0.11000
H601        H  0.17662356  0.87476167  0.88876557     0.08700
H602        H  0.11020081  0.95609934  0.80274218     0.06200
H603        H  0.07004451  0.81246743  0.85284454     0.06100
C604        C  0.18037294  0.58078972  0.62754445     0.03100
C605        C  0.14412867  0.57422529  0.67026334    -0.13000
C606        C  0.10646080  0.59404415  0.66877847     0.00600
C607        C  0.10614157  0.62180574  0.62545209    -0.11600
C608        C  0.14217154  0.63131545  0.58364333     0.03100
C609        C  0.17917913  0.61006138  0.58453235    -0.11000
H610        H  0.14431241  0.55228830  0.70364624     0.08700
H611        H  0.07735336  0.63775140  0.62500753     0.06200
H612        H  0.20672917  0.61604775  0.55191620     0.06100
O613        O  0.42836356  0.63678591  0.77709249    -0.73000
O614        O  0.02976694  0.58731783  0.70242234    -0.73900
O615        O  0.45320221  0.55381712  0.78480779    -0.62600
O616        O  0.50599123  0.67241420  0.69522587    -0.71000
O617        O  0.04284068  0.68472046  0.74625437    -0.70500
O618        O  0.99236948  0.56510143  0.83414132    -0.61800
O619        O  0.06999809  0.60119260  0.74990268    -0.74300
O620        O  0.46500728  0.64877405  0.82852027    -0.73100
Cu621      Cu  0.47816600  0.61197611  0.73824096     1.04600
Cu622      Cu  0.01891559  0.62542229  0.79151728     1.04300
C623        C  0.42926284  0.64693489  0.81686643     0.93200
C624        C  0.06690399  0.59100460  0.71063384     0.92400
C625        C  0.46198472  0.54213760  0.82477345     0.84500
C626        C  0.53467886  0.69666918  0.70598468     0.90800
O627        O  0.10833631  0.68866587  0.54854570    -0.73000
O628        O  0.09475031  0.78576898  0.94566510    -0.73900
O629        O  0.06876167  0.69244978  0.47602136    -0.62600
O630        O  0.13308303  0.78051665  0.51938661    -0.71000
O631        O  0.19443316  0.76643840  0.97070066    -0.70500
O632        O  0.12745049  0.67996120  0.92188265    -0.61800
O633        O  0.15697841  0.77531119  0.89535859    -0.71900
O634        O  0.16761761  0.67208693  0.49932361    -0.73100
Cu635      Cu  0.09911403  0.73690422  0.49878213     1.04600
Cu636      Cu  0.16403454  0.72294468  0.94471301     1.04300
C637        C  0.13963240  0.66533725  0.54142906     0.93200
C638        C  0.12508536  0.79765455  0.90531751     0.92400
C639        C  0.08610838  0.67315797  0.94243661     0.84500
C640        C  0.17432862  0.78642021  0.00260232     0.90800
O641        O  0.29790490  0.93228158  0.65999975    -0.73000
O642        O  0.21783339  0.52754314  0.66556813    -0.73900
O643        O  0.20795851  0.94070869  0.65581855    -0.62600
O644        O  0.30436424  0.02182984  0.66906189    -0.71000
O645        O  0.33138290  0.55054720  0.58989958    -0.70500
O646        O  0.23843032  0.46344239  0.57609709    -0.61800
O647        O  0.24384120  0.55154294  0.58580356    -0.74300
O648        O  0.32784969  0.95785516  0.58088371    -0.73100
Cu649      Cu  0.25672904  0.97928277  0.66521194     1.04600
Cu650      Cu  0.28674748  0.50616435  0.58024459     1.04300
C651        C  0.32676495  0.93096203  0.62047952     0.93200
C652        C  0.21644743  0.55291115  0.62635240     0.92400
C653        C  0.20538074  0.44546290  0.61287657     0.84500
C654        C  0.33020703  0.55109917  0.63332352     0.90800
O655        O  0.43743437  0.83599702  0.73058669    -0.73000
O656        O  0.02525253  0.84730923  0.80584451    -0.73900
O657        O  0.43584176  0.85613213  0.82317524    -0.62600
O658        O  0.52425593  0.82399135  0.71883700    -0.71000
O659        O  0.04909851  0.89396282  0.67646611    -0.70500
O660        O  0.96005914  0.92757656  0.78544588    -0.61800
O661        O  0.05022594  0.91767892  0.76605469    -0.74300
O662        O  0.46005583  0.90769475  0.69392788    -0.73100
Cu663      Cu  0.47978629  0.83855134  0.77087798     1.04600
Cu664      Cu  0.00527041  0.91450293  0.72918726     1.04300
C665        C  0.43649913  0.87036416  0.69867274     0.93200
C666        C  0.05221646  0.88351106  0.79734302     0.92400
C667        C  0.43590353  0.89756986  0.82210775     0.84500
C668        C  0.54988947  0.85181775  0.68193116     0.90800
O669        O  0.28599807  0.02297731  0.81539814    -0.73000
O670        O  0.20852314  0.97365071  0.94812991    -0.73900
O671        O  0.21223750  0.95322889  0.85960164    -0.62600
O672        O  0.28233410  0.54301685  0.90328916    -0.71000
O673        O  0.23834506  0.59314854  0.89206398    -0.70500
O674        O  0.16466196  0.99936300  0.84959519    -0.61800
O675        O  0.16222036  0.52218258  0.94045432    -0.74300
O676        O  0.24081469  0.57145551  0.80302691    -0.73100
Cu677      Cu  0.24842446  0.99664515  0.88204314     1.04600
Cu678      Cu  0.19954461  0.54826930  0.87094378     1.04300
C679        C  0.27742712  0.55692159  0.78919301     0.93200
C680        C  0.17304522  0.48870837  0.96541992     0.92400
C681        C  0.17646083  0.96038957  0.85016113     0.84500
C682        C  0.27404293  0.58323433  0.90037754     0.90800
O683        O  0.37350530  0.74869158  0.93610969    -0.73000
O684        O  0.42055627  0.82212305  0.51594763    -0.73900
O685        O  0.45177467  0.75602897  0.95702681    -0.62600
O686        O  0.34568834  0.81322787  0.99236131    -0.71000
O687        O  0.31762308  0.75822362  0.55810760    -0.70500
O688        O  0.42262490  0.69893054  0.52059454    -0.61800
O689        O  0.39422452  0.76574477  0.58034842    -0.74300
O690        O  0.34329874  0.69307153  0.00055246    -0.73100
Cu691      Cu  0.39925903  0.78690659  0.97319437     1.04600
Cu692      Cu  0.36879257  0.72706354  0.54231495     1.04300
C693        C  0.35297792  0.70879019  0.95484678     0.93200
C694        C  0.40801459  0.80761934  0.56201166     0.92400
C695        C  0.45117813  0.71593064  0.97937113     0.84500
C696        C  0.31591307  0.79614319  0.03214416     0.90800
C697        C  0.14737578  0.46759049  0.01570968    -0.05500
C698        C  0.15002920  0.42210685  0.03162589    -0.32900
C699        C  0.15880606  0.40769952  0.57554237     0.36300
C700        C  0.16286099  0.43841455  0.60376528    -0.05800
C701        C  0.14392785  0.97772313  0.59596864    -0.32800
C702        C  0.13823235  0.99413861  0.05014905     0.36200
H703        H  0.15421525  0.40016293  0.00643014     0.16600
O704        O  0.17169708  0.36692219  0.58591036    -0.60300
H705        H  0.14329206  0.00044994  0.61985626     0.16600
O706        O  0.13258907  0.03796129  0.03690381    -0.60400
H707        H  0.10094214  0.03854254  0.05174153     0.43600
H708        H  0.20335717  0.37283833  0.58273625     0.43600
C709        C  0.35306604  0.58871236  0.64532690    -0.05500
C710        C  0.37552277  0.07362138  0.67841862    -0.32900
C711        C  0.35203291  0.06438623  0.72779796     0.36300
C712        C  0.31024035  0.57853868  0.74221883    -0.05800
C713        C  0.29904553  0.61042929  0.70819405    -0.32800
C714        C  0.32342864  0.61844739  0.65904086     0.36200
H715        H  0.40394407  0.05719177  0.66709482     0.16600
O716        O  0.36777098  0.03796048  0.76034924    -0.60300
H717        H  0.26937789  0.62524512  0.71845390     0.16600
O718        O  0.30780018  0.64300519  0.62505852    -0.60400
H719        H  0.31924084  0.67463153  0.62273497     0.43600
H720        H  0.36226510  0.00702970  0.75573512     0.43600
C721        C  0.05505208  0.64807993  0.92502553    -0.05500
C722        C  0.04321716  0.67832384  0.39031366    -0.32900
C723        C  0.50818217  0.70143105  0.40703328     0.36300
C724        C  0.48166351  0.68753860  0.95602692    -0.05800
C725        C  0.48418661  0.64468525  0.98193144    -0.32800
C726        C  0.01976700  0.62274997  0.96381605     0.36200
H727        H  0.06717189  0.69295650  0.35545675     0.16600
O728        O  0.50315961  0.73954551  0.37733431    -0.60300
H729        H  0.46134099  0.63017517  0.01747434     0.16600
O730        O  0.02655421  0.58544112  0.99312644    -0.60400
H731        H  0.02343904  0.56083540  0.97631497     0.43600
H732        H  0.49516696  0.72949706  0.35034471     0.43600
C733        C  0.27733871  0.81807452  0.04560003    -0.05500
C734        C  0.27158805  0.85112581  0.00867943    -0.32900
C735        C  0.23306089  0.84564027  0.99623284     0.36300
C736        C  0.19990953  0.81054533  0.02481641    -0.05800
C737        C  0.20144658  0.78729733  0.56996614    -0.32800
C738        C  0.24031835  0.79241530  0.58174639     0.36200
H739        H  0.29943122  0.87395464  0.98305217     0.16600
O740        O  0.23007679  0.87051324  0.95360722    -0.60300
H741        H  0.17480615  0.76142046  0.59294150     0.16600
O742        O  0.24405048  0.76627500  0.62345433    -0.60400
H743        H  0.23867156  0.73470438  0.62071023     0.43600
H744        H  0.24659117  0.85656537  0.92782164     0.43600
C745        C  0.41339964  0.91211230  0.86565885    -0.05500
C746        C  0.94327923  0.92447615  0.88971693    -0.32900
C747        C  0.95754537  0.47016277  0.88327981     0.36300
C748        C  0.43677343  0.50102042  0.85887023    -0.05800
C749        C  0.39522782  0.48639038  0.85535435    -0.32800
C750        C  0.38286233  0.94082441  0.85954781     0.36200
H751        H  0.96410451  0.90088371  0.89998214     0.16600
O752        O  0.99598598  0.48350374  0.89202226    -0.60300
H753        H  0.37617863  0.51022853  0.84190057     0.16600
O754        O  0.34855411  0.92733969  0.84364257    -0.60400
H755        H  0.32207128  0.92375999  0.87178930     0.43600
H756        H  0.98691617  0.48953632  0.92496155     0.43600
C757        C  0.55839149  0.73953010  0.67312490    -0.05500
C758        C  0.09479365  0.76061572  0.68268483    -0.32900
C759        C  0.10650105  0.80714659  0.66758201     0.36300
C760        C  0.57877527  0.83174121  0.64679499    -0.05800
C761        C  0.55523245  0.80996658  0.62166273    -0.32800
C762        C  0.54209224  0.76344745  0.63749751     0.36200
H763        H  0.11044664  0.74226657  0.70694289     0.16600
O764        O  0.13421754  0.82827813  0.68750398    -0.60300
H765        H  0.53730338  0.82908051  0.60066947     0.16600
O766        O  0.50907693  0.74356641  0.62364803    -0.60400
H767        H  0.52419852  0.73322582  0.59432131     0.43600
H768        H  0.16331053  0.81926143  0.67437074     0.43600
C769        C  0.88741997  0.15101794  0.35211900     0.03100
C770        C  0.84949441  0.12112885  0.35850375    -0.13000
C771        C  0.81075548  0.11863818  0.39653838     0.00600
C772        C  0.81006912  0.14788480  0.42863877    -0.11600
C773        C  0.84806084  0.17915525  0.42157836     0.03100
C774        C  0.88618440  0.17991996  0.38344050    -0.11000
H775        H  0.85067586  0.09800221  0.33470403     0.08700
H776        H  0.78102220  0.14589594  0.45878115     0.06200
H777        H  0.91586511  0.20208807  0.37924478     0.06100
C778        C  0.90133101  0.34068293  0.09411808     0.03100
C779        C  0.91932161  0.33783399  0.13293685    -0.13000
C780        C  0.91034194  0.36730996  0.16461145     0.00600
C781        C  0.88050123  0.39751631  0.15944323    -0.11600
C782        C  0.86025443  0.39992027  0.12238262     0.03100
C783        C  0.87222506  0.37246391  0.08874435    -0.11000
H784        H  0.94183085  0.31411723  0.13715460     0.08700
H785        H  0.87350700  0.41984651  0.18410784     0.06200
H786        H  0.85714072  0.37415727  0.05988819     0.06100
C787        C  0.62445407  0.33942775  0.37202783     0.03100
C788        C  0.65255851  0.37789706  0.36926391    -0.13000
C789        C  0.64783135  0.42070253  0.34533395     0.00600
C790        C  0.61464416  0.42358678  0.32154131    -0.11600
C791        C  0.58682709  0.38401803  0.32276273     0.03100
C792        C  0.59182030  0.34265391  0.34930549    -0.11000
H793        H  0.67649548  0.37452992  0.38901566     0.08700
H794        H  0.61044423  0.45595753  0.30260924     0.06200
H795        H  0.57024737  0.31230766  0.35249184     0.06100
C796        C  0.68071575  0.08121985  0.12763896     0.03100
C797        C  0.64450803  0.07469945  0.17038336    -0.13000
C798        C  0.60682208  0.09447694  0.16890774     0.00600
C799        C  0.60645894  0.12217691  0.12556213    -0.11600
C800        C  0.64242796  0.13159887  0.08368664     0.03100
C801        C  0.67946034  0.11038809  0.08458311    -0.11000
H802        H  0.64471965  0.05279944  0.20377663     0.08700
H803        H  0.57765424  0.13809719  0.12513867     0.06200
H804        H  0.70696734  0.11630481  0.05193391     0.06100
O805        O  0.92843436  0.13661177  0.27731876    -0.73000
O806        O  0.53010897  0.08759381  0.20249829    -0.73900
O807        O  0.95348044  0.05377268  0.28469312    -0.62600
O808        O  0.00605365  0.17251983  0.19559277    -0.71000
O809        O  0.54293789  0.18491499  0.24656786    -0.70500
O810        O  0.49246021  0.06510251  0.33418845    -0.61800
O811        O  0.57023216  0.10143003  0.25009491    -0.74300
O812        O  0.96503615  0.14873530  0.32874170    -0.73100
Cu813      Cu  0.97836999  0.11202134  0.23837837     1.04600
Cu814      Cu  0.51902955  0.12551322  0.29172472     1.04300
C815        C  0.92929234  0.14679354  0.31709004     0.93200
C816        C  0.56722370  0.09133188  0.21075658     0.92400
C817        C  0.96216419  0.04210181  0.32470762     0.84500
C818        C  0.03469049  0.19684662  0.20633781     0.90800
O819        O  0.60838911  0.18870192  0.04850999    -0.73000
O820        O  0.59475322  0.28555361  0.44558199    -0.73900
O821        O  0.56892278  0.19268189  0.97590295    -0.62600
O822        O  0.63297554  0.28053598  0.01966341    -0.71000
O823        O  0.69451571  0.26609867  0.47062671    -0.70500
O824        O  0.62736986  0.17980947  0.42175751    -0.61800
O825        O  0.65700411  0.27510321  0.39531102    -0.71900
O826        O  0.66779628  0.17232779  0.99930607    -0.73100
Cu827      Cu  0.59913346  0.23701368  0.99885846     1.04600
Cu828      Cu  0.66400180  0.22267626  0.44463744     1.04300
C829        C  0.63978882  0.16550461  0.04141308     0.93200
C830        C  0.62510096  0.29743991  0.40524720     0.92400
C831        C  0.58602553  0.17301827  0.44228075     0.84500
C832        C  0.67444077  0.28613771  0.50248456     0.90800
O833        O  0.79780302  0.43237334  0.16007634    -0.73000
O834        O  0.71805820  0.02785271  0.16565915    -0.73900
O835        O  0.70798147  0.44111413  0.15575306    -0.62600
O836        O  0.80450274  0.52184701  0.16924594    -0.71000
O837        O  0.83166273  0.05069543  0.09011244    -0.70500
O838        O  0.73862510  0.96398370  0.07600952    -0.61800
O839        O  0.74418732  0.05198616  0.08591620    -0.74300
O840        O  0.82797829  0.45814462  0.08101315    -0.73100
Cu841      Cu  0.75679695  0.47949548  0.16527910     1.04600
Cu842      Cu  0.78697637  0.00651962  0.08031778     1.04300
C843        C  0.82674118  0.43113330  0.12058356     0.93200
C844        C  0.71675819  0.05331043  0.12645649     0.92400
C845        C  0.70550939  0.94602502  0.11271674     0.84500
C846        C  0.83045355  0.05112361  0.13356693     0.90800
O847        O  0.93733932  0.33617941  0.23062639    -0.73000
O848        O  0.52544035  0.34727206  0.30553890    -0.73900
O849        O  0.93598622  0.35612492  0.32319422    -0.62600
O850        O  0.02409687  0.32421367  0.21848922    -0.71000
O851        O  0.54894537  0.39419949  0.17616695    -0.70500
O852        O  0.46020990  0.42758131  0.28556001    -0.61800
O853        O  0.55043204  0.41765532  0.26582144    -0.74300
O854        O  0.95992514  0.40790210  0.19403865    -0.73100
Cu855      Cu  0.97981558  0.33865041  0.27073000     1.04600
Cu856      Cu  0.50529041  0.41461964  0.22911973     1.04300
C857        C  0.93638804  0.37056307  0.19875334     0.93200
C858        C  0.55244423  0.38344185  0.29705024     0.92400
C859        C  0.93603779  0.39754977  0.32218361     0.84500
C860        C  0.04965062  0.35205238  0.18154157     0.90800
O861        O  0.78605941  0.52266166  0.31584378    -0.73000
O862        O  0.70836975  0.47327576  0.44848572    -0.73900
O863        O  0.71223510  0.45296131  0.35985245    -0.62600
O864        O  0.78232267  0.04280285  0.40368254    -0.71000
O865        O  0.73836123  0.09293451  0.39233659    -0.70500
O866        O  0.66465330  0.49910722  0.34991931    -0.61800
O867        O  0.66219841  0.02198602  0.44074038    -0.74300
O868        O  0.74095168  0.07117122  0.30331814    -0.73100
Cu869      Cu  0.74837559  0.49630185  0.38244073     1.04600
Cu870      Cu  0.69960385  0.04803124  0.37121460     1.04300
C871        C  0.77758387  0.05665726  0.28953153     0.93200
C872        C  0.67299371  0.98849877  0.46572318     0.92400
C873        C  0.67647536  0.46015230  0.35038314     0.84500
C874        C  0.77404912  0.08303129  0.40068069     0.90800
O875        O  0.87353861  0.24864154  0.43616047    -0.73000
O876        O  0.92057204  0.32235133  0.01591122    -0.73900
O877        O  0.95172432  0.25574231  0.45722961    -0.62600
O878        O  0.84574741  0.31311996  0.49249076    -0.71000
O879        O  0.81759786  0.25837751  0.05791617    -0.70500
O880        O  0.92276434  0.19919032  0.02060437    -0.61800
O881        O  0.89413928  0.26599878  0.08031903    -0.74300
O882        O  0.84307843  0.19304579  0.50056838    -0.73100
Cu883      Cu  0.89928557  0.28670758  0.47334641     1.04600
Cu884      Cu  0.86884404  0.22726752  0.04222332     1.04300
C885        C  0.85287709  0.20879147  0.45485889     0.93200
C886        C  0.90797762  0.30786395  0.06198559     0.92400
C887        C  0.95101357  0.21555619  0.47940670     0.84500
C888        C  0.81597707  0.29602894  0.53227976     0.90800
C889        C  0.64725058  0.96728693  0.51597852    -0.05500
C890        C  0.64990712  0.92178398  0.53178472    -0.32900
C891        C  0.65899137  0.90826767  0.07534942     0.36300
C892        C  0.66305055  0.93907738  0.10346059    -0.05800
C893        C  0.64428002  0.47830006  0.09553944    -0.32800
C894        C  0.63805278  0.49361352  0.55060622     0.36200
H895        H  0.65415942  0.89992176  0.50650340     0.16600
O896        O  0.67195946  0.86754623  0.08580422    -0.60300
H897        H  0.64375024  0.50113088  0.11930113     0.16600
O898        O  0.63252131  0.53748747  0.53747267    -0.60400
H899        H  0.60098577  0.53823156  0.55274051     0.43600
H900        H  0.70369620  0.87354680  0.08223102     0.43600
C901        C  0.85332915  0.08864629  0.14566970    -0.05500
C902        C  0.87564076  0.57346815  0.17877411    -0.32900
C903        C  0.85209145  0.56400292  0.22814295     0.36300
C904        C  0.81042235  0.07829140  0.24256950    -0.05800
C905        C  0.79926001  0.11024769  0.20857393    -0.32800
C906        C  0.82368670  0.11835959  0.15942687     0.36200
H907        H  0.90404009  0.55702631  0.16737578     0.16600
O908        O  0.86769256  0.53721132  0.26053963    -0.60300
H909        H  0.76958749  0.12505324  0.21884251     0.16600
O910        O  0.80805256  0.14293579  0.12546055    -0.60400
H911        H  0.81970253  0.17453735  0.12294861     0.43600
H912        H  0.86195909  0.50637747  0.25574203     0.43600
C913        C  0.55500829  0.14806255  0.42472092    -0.05500
C914        C  0.54324462  0.17828636  0.89033247    -0.32900
C915        C  0.00823664  0.20143651  0.90703256     0.36300
C916        C  0.98147613  0.18723084  0.45590743    -0.05800
C917        C  0.98405918  0.14432308  0.48162657    -0.32800
C918        C  0.51973271  0.12255386  0.46339185     0.36200
H919        H  0.56712244  0.19281488  0.85539802     0.16600
O920        O  0.00314373  0.23945850  0.87724713    -0.60300
H921        H  0.96119991  0.12966312  0.51712303     0.16600
O922        O  0.52655146  0.08513789  0.49251895    -0.60400
H923        H  0.52450900  0.06086036  0.47500380     0.43600
H924        H  0.99531168  0.22932945  0.85021105     0.43600
C925        C  0.77736111  0.31789102  0.54576230    -0.05500
C926        C  0.77158144  0.35097868  0.50889435    -0.32900
C927        C  0.73309560  0.34544348  0.49636223     0.36300
C928        C  0.70003118  0.31018764  0.52476679    -0.05800
C929        C  0.70142393  0.28759883  0.07010355    -0.32800
C930        C  0.74037419  0.29273958  0.08173109     0.36200
H931        H  0.79939539  0.37393355  0.48338299     0.16600
O932        O  0.73002560  0.37056102  0.45390242    -0.60300
H933        H  0.67479009  0.26177031  0.09319459     0.16600
O934        O  0.74418550  0.26675200  0.12347935    -0.60400
H935        H  0.73874967  0.23514221  0.12089873     0.43600
H936        H  0.74656461  0.35682699  0.42794592     0.43600
C937        C  0.91338549  0.41203965  0.36570882    -0.05500
C938        C  0.44316296  0.42443599  0.38985086    -0.32900
C939        C  0.45763439  0.97012978  0.38325983     0.36300
C940        C  0.93692032  0.00097418  0.35874860    -0.05800
C941        C  0.89536765  0.98636750  0.35523556    -0.32800
C942        C  0.88290323  0.44076725  0.35941360     0.36200
H943        H  0.46390848  0.40083063  0.40028621     0.16600
O944        O  0.49615857  0.98340271  0.39187910    -0.60300
H945        H  0.87632956  0.01022017  0.34180637     0.16600
O946        O  0.84867103  0.42726127  0.34340035    -0.60400
H947        H  0.82221385  0.42302208  0.37171202     0.43600
H948        H  0.48724892  0.99482047  0.42189534     0.43600
C949        C  0.05821492  0.23975434  0.17343748    -0.05500
C950        C  0.59459592  0.26108409  0.18282843    -0.32900
C951        C  0.60632480  0.30759783  0.16725826     0.36300
C952        C  0.07850847  0.33196953  0.14639855    -0.05800
C953        C  0.05489471  0.30989064  0.12154745    -0.32800
C954        C  0.04183356  0.26338255  0.13771110     0.36200
H955        H  0.61027879  0.24295819  0.20719805     0.16600
O956        O  0.63404149  0.32903313  0.18695453    -0.60300
H957        H  0.03691001  0.32880849  0.10046776     0.16600
O958        O  0.00885457  0.24323644  0.12400570    -0.60400
H959        H  0.02403191  0.23195695  0.09537143     0.43600
H960        H  0.66306592  0.31971006  0.17425266     0.43600
C961        C  0.88740290  0.15130448  0.85187755     0.03100
C962        C  0.84941983  0.12158350  0.85808784    -0.13000
C963        C  0.81071526  0.11899280  0.89618259     0.00600
C964        C  0.81008155  0.14805922  0.92846743    -0.11600
C965        C  0.84811174  0.17925068  0.92151301     0.03100
C966        C  0.88623199  0.18003745  0.88336202    -0.11000
H967        H  0.85055578  0.09858150  0.83415971     0.08700
H968        H  0.78104706  0.14600579  0.95864461     0.06200
H969        H  0.91595236  0.20209871  0.87926709     0.06100
C970        C  0.90130851  0.34043633  0.59414870     0.03100
C971        C  0.91934918  0.33765448  0.63291200    -0.13000
C972        C  0.91043492  0.36720442  0.66449596     0.00600
C973        C  0.88062023  0.39744262  0.65928545    -0.11600
C974        C  0.86029887  0.39977256  0.62228575     0.03100
C975        C  0.87220353  0.37221790  0.58873645    -0.11000
H976        H  0.94185008  0.31393215  0.63715162     0.08700
H977        H  0.87367568  0.41982635  0.68389492     0.06200
H978        H  0.85708365  0.37384980  0.55991450     0.06100
C979        C  0.62430999  0.33962110  0.87214955     0.03100
C980        C  0.65245597  0.37811978  0.86922966    -0.13000
C981        C  0.64763575  0.42090956  0.84533189     0.00600
C982        C  0.61434129  0.42373286  0.82170000    -0.11600
C983        C  0.58651749  0.38412966  0.82304298     0.03100
C984        C  0.59155815  0.34280291  0.84960120    -0.11000
H985        H  0.67649461  0.37479138  0.88884845     0.08700
H986        H  0.61009487  0.45607811  0.80275427     0.06200
H987        H  0.56996564  0.31244101  0.85288388     0.06100
C988        C  0.68038365  0.08080282  0.62755184     0.03100
C989        C  0.64416051  0.07429250  0.67028865    -0.13000
C990        C  0.60644401  0.09401866  0.66877835     0.00600
C991        C  0.60605928  0.12162685  0.62538356    -0.11600
C992        C  0.64209907  0.13114740  0.58357079     0.03100
C993        C  0.67914477  0.10997809  0.58450218    -0.11000
H994        H  0.64439565  0.05245518  0.70370825     0.08700
H995        H  0.57723715  0.13750031  0.62490246     0.06200
H996        H  0.70669446  0.11595932  0.55188644     0.06100
O997        O  0.92837467  0.13681206  0.77713083    -0.73000
O998        O  0.52975003  0.08730881  0.70249820    -0.73900
O999        O  0.95319481  0.05383123  0.78487785    -0.62600
O1000       O  0.00598834  0.17239472  0.69532961    -0.71000
O1001       O  0.54279182  0.18475484  0.74639123    -0.70500
O1002       O  0.49238437  0.06511225  0.83417949    -0.61800
O1003       O  0.57001748  0.10126156  0.74991361    -0.74300
O1004       O  0.96497466  0.14877029  0.82860612    -0.73100
Cu1005     Cu  0.97816335  0.11197836  0.73831696     1.04600
Cu1006     Cu  0.51890311  0.12544596  0.79159163     1.04300
C1007       C  0.92925498  0.14697923  0.81689925     0.93200
C1008       C  0.56690464  0.09103666  0.71066233     0.92400
C1009       C  0.96199645  0.04215375  0.82482988     0.84500
C1010       C  0.03464215  0.19667508  0.70610678     0.90800
O1011       O  0.60823704  0.18845062  0.54844920    -0.73000
O1012       O  0.59468845  0.28569951  0.94568112    -0.73900
O1013       O  0.56883162  0.19255979  0.47579367    -0.62600
O1014       O  0.63304248  0.28030023  0.51956720    -0.71000
O1015       O  0.69447447  0.26638324  0.97072004    -0.70500
O1016       O  0.62745437  0.18000103  0.92181257    -0.61800
O1017       O  0.65697658  0.27535827  0.89538987    -0.71900
O1018       O  0.66763521  0.17203161  0.49926753    -0.73100
Cu1019     Cu  0.59910824  0.23683220  0.49877309     1.04600
Cu1020     Cu  0.66404664  0.22293618  0.94469437     1.04300
C1021       C  0.63957467  0.16517735  0.54134534     0.93200
C1022       C  0.62503632  0.29764608  0.90535011     0.92400
C1023       C  0.58611514  0.17313821  0.94239482     0.84500
C1024       C  0.67437258  0.28639434  0.00259337     0.90800
O1025       O  0.79784191  0.43223110  0.66001581    -0.73000
O1026       O  0.71781744  0.02752580  0.66557635    -0.73900
O1027       O  0.70791798  0.44070174  0.65586015    -0.62600
O1028       O  0.80434392  0.52177563  0.66907851    -0.71000
O1029       O  0.83150024  0.05049306  0.58986843    -0.70500
O1030       O  0.73839276  0.96359562  0.57605802    -0.61800
O1031       O  0.74393523  0.05164991  0.58583393    -0.74300
O1032       O  0.82786929  0.45789969  0.58092199    -0.73100
Cu1033     Cu  0.75669979  0.47925933  0.66523041     1.04600
Cu1034     Cu  0.78678439  0.00620378  0.58022499     1.04300
C1035       C  0.82673665  0.43095862  0.62050122     0.93200
C1036       C  0.71647982  0.05295024  0.62637298     0.92400
C1037       C  0.70537119  0.94555961  0.61284598     0.84500
C1038       C  0.83029215  0.05109081  0.63328960     0.90800
O1039       O  0.93737831  0.33607953  0.73055631    -0.73000
O1040       O  0.52521646  0.34727585  0.80577779    -0.73900
O1041       O  0.93581749  0.35614185  0.82312200    -0.62600
O1042       O  0.02413627  0.32402376  0.71873948    -0.71000
O1043       O  0.54905727  0.39399081  0.67638814    -0.70500
O1044       O  0.46007033  0.42757895  0.78542218    -0.61800
O1045       O  0.55021949  0.41764587  0.76600255    -0.74300
O1046       O  0.96006218  0.40776881  0.69387536    -0.73100
Cu1047     Cu  0.97972938  0.33857644  0.77081450     1.04600
Cu1048     Cu  0.50526525  0.41452343  0.72913731     1.04300
C1049       C  0.93648686  0.37044824  0.69862742     0.93200
C1050       C  0.55218061  0.38347323  0.79730179     0.92400
C1051       C  0.93589158  0.39757621  0.82206311     0.84500
C1052       C  0.04978056  0.35183838  0.68183326     0.90800
O1053       O  0.78586796  0.52295973  0.81550218    -0.73000
O1054       O  0.70838795  0.47352444  0.94819245    -0.73900
O1055       O  0.71211365  0.45323885  0.85961816    -0.62600
O1056       O  0.78241299  0.04316591  0.90315016    -0.71000
O1057       O  0.73835554  0.09322591  0.89192223    -0.70500
O1058       O  0.66451592  0.49937571  0.84972186    -0.61800
O1059       O  0.66229200  0.02223009  0.94031849    -0.74300
O1060       O  0.74092875  0.07144780  0.80290433    -0.73100
Cu1061     Cu  0.74830301  0.49657907  0.88212185     1.04600
Cu1062     Cu  0.69963304  0.04828888  0.87080718     1.04300
C1063       C  0.77755253  0.05693200  0.78908465     0.93200
C1064       C  0.67315646  0.98881490  0.96532947     0.92400
C1065       C  0.67632157  0.46040698  0.85022672     0.84500
C1066       C  0.77406081  0.08336316  0.90024682     0.90800
O1067       O  0.87358624  0.24873182  0.93610742    -0.73000
O1068       O  0.92058784  0.32210545  0.51598762    -0.73900
O1069       O  0.95180541  0.25591055  0.95714277    -0.62600
O1070       O  0.84576164  0.31325326  0.99235775    -0.71000
O1071       O  0.81760262  0.25821776  0.55802594    -0.70500
O1072       O  0.92265564  0.19894146  0.52060090    -0.61800
O1073       O  0.89414456  0.26573736  0.58038324    -0.74300
O1074       O  0.84318603  0.19313427  0.00052506    -0.73100
Cu1075     Cu  0.89931944  0.28686755  0.97325483     1.04600
Cu1076     Cu  0.86879183  0.22707489  0.54227864     1.04300
C1077       C  0.85295072  0.20887103  0.95481462     0.93200
C1078       C  0.90798065  0.30760515  0.56205223     0.92400
C1079       C  0.95112068  0.21575344  0.97939536     0.84500
C1080       C  0.81598395  0.29618439  0.03214554     0.90800
C1081       C  0.64748458  0.96770795  0.01562163    -0.05500
C1082       C  0.65012684  0.92222259  0.03154348    -0.32900
C1083       C  0.65880880  0.90774173  0.57555631     0.36300
C1084       C  0.66283782  0.93847235  0.60376764    -0.05800
C1085       C  0.64400128  0.47769177  0.59596254    -0.32800
C1086       C  0.63815617  0.49402602  0.05023746     0.36200
H1087       H  0.65436871  0.90029055  0.00633470     0.16600
O1088       O  0.67177370  0.86700164  0.58591344    -0.60300
H1089       H  0.64338214  0.50040441  0.61986110     0.16600
O1090       O  0.63251211  0.53785024  0.03699403    -0.60400
H1091       H  0.60098839  0.53855496  0.05237550     0.43600
H1092       H  0.70346147  0.87297785  0.58260335     0.43600
C1093       C  0.85318717  0.08871150  0.64524434    -0.05500
C1094       C  0.87539253  0.57358630  0.67849544    -0.32900
C1095       C  0.85187261  0.56426822  0.72786868     0.36300
C1096       C  0.81036494  0.07857660  0.74212069    -0.05800
C1097       C  0.79914288  0.11042381  0.70807850    -0.32800
C1098       C  0.82355905  0.11845864  0.65893755     0.36200
H1099       H  0.90378575  0.55712044  0.66715822     0.16600
O1100       O  0.86750849  0.53762795  0.76035873    -0.60300
H1101       H  0.76945500  0.12521090  0.71831997     0.16600
O1102       O  0.80797035  0.14304276  0.62493850    -0.60400
H1103       H  0.81973875  0.17463418  0.62233905     0.43600
H1104       H  0.86183966  0.50674009  0.75566675     0.43600
C1105       C  0.55507719  0.14807603  0.92494061    -0.05500
C1106       C  0.54319695  0.17838287  0.39018761    -0.32900
C1107       C  0.00814848  0.20144460  0.40697776     0.36300
C1108       C  0.98159387  0.18737125  0.95598948    -0.05800
C1109       C  0.98417100  0.14451088  0.98183424    -0.32800
C1110       C  0.51980289  0.12266477  0.96368958     0.36200
H1111       H  0.56710078  0.19302905  0.35530065     0.16600
O1112       O  0.00305544  0.23954079  0.37730369    -0.60300
H1113       H  0.96133134  0.12994698  0.01736647     0.16600
O1114       O  0.52661360  0.08531987  0.99293051    -0.60400
H1115       H  0.52434458  0.06092231  0.97562348     0.43600
H1116       H  0.99511138  0.22949115  0.35029390     0.43600
C1117       C  0.77739388  0.31809508  0.04560409    -0.05500
C1118       C  0.77161078  0.35114677  0.00870624    -0.32900
C1119       C  0.73305660  0.34566885  0.99630262     0.36300
C1120       C  0.69995334  0.31050443  0.02483343    -0.05800
C1121       C  0.70145478  0.28721722  0.57002706    -0.32800
C1122       C  0.74033446  0.29241160  0.58177822     0.36200
H1123       H  0.79943512  0.37400868  0.98308967     0.16600
O1124       O  0.72997837  0.37066932  0.95378737    -0.60300
H1125       H  0.67484119  0.26132320  0.59302669     0.16600
O1126       O  0.74411066  0.26633215  0.62349606    -0.60400
H1127       H  0.73873725  0.23474388  0.62080484     0.43600
H1128       H  0.74641428  0.35678998  0.92790496     0.43600
C1129       C  0.91336121  0.41209650  0.86561171    -0.05500
C1130       C  0.44322311  0.42444286  0.88969022    -0.32900
C1131       C  0.45757254  0.97018678  0.88334733     0.36300
C1132       C  0.93679076  0.00104362  0.85893393    -0.05800
C1133       C  0.89524269  0.98641049  0.85543603    -0.32800
C1134       C  0.88284066  0.44082012  0.85947743     0.36200
H1135       H  0.46403530  0.40084625  0.89997983     0.16600
O1136       O  0.49601908  0.98349863  0.89211062    -0.60300
H1137       H  0.87618579  0.01024541  0.84199135     0.16600
O1138       O  0.84853592  0.42734744  0.84356453    -0.60400
H1139       H  0.82218372  0.42269425  0.87206580     0.43600
H1140       H  0.48699352  0.99475491  0.92222419     0.43600
C1141       C  0.05832710  0.23953006  0.67324193    -0.05500
C1142       C  0.59468550  0.26069082  0.68282803    -0.32900
C1143       C  0.60638893  0.30721483  0.66761071     0.36300
C1144       C  0.07866802  0.33173622  0.64673599    -0.05800
C1145       C  0.05514539  0.30987354  0.62164563    -0.32800
C1146       C  0.04205080  0.26335289  0.63754350     0.36200
H1147       H  0.61030929  0.24241104  0.70716354     0.16600
O1148       O  0.63402658  0.32843350  0.68755674    -0.60300
H1149       H  0.03722216  0.32892792  0.60059679     0.16600
O1150       O  0.00910700  0.24337122  0.62366089    -0.60400
H1151       H  0.02428649  0.23316663  0.59426926     0.43600
H1152       H  0.66314340  0.31943844  0.67450166     0.43600
C1153       C  0.88739060  0.65100159  0.35211779     0.03100
C1154       C  0.84945867  0.62114047  0.35846302    -0.13000
C1155       C  0.81073882  0.61859278  0.39654167     0.00600
C1156       C  0.81005751  0.64778115  0.42870104    -0.11600
C1157       C  0.84804797  0.67904070  0.42166908     0.03100
C1158       C  0.88616975  0.67982863  0.38351612    -0.11000
H1159       H  0.85062846  0.59806097  0.33461400     0.08700
H1160       H  0.78101388  0.64576185  0.45885723     0.06200
H1161       H  0.91585680  0.70197597  0.37934721     0.06100
C1162       C  0.90141070  0.84082881  0.09397304     0.03100
C1163       C  0.91938400  0.83793812  0.13281101    -0.13000
C1164       C  0.91038219  0.86737426  0.16452902     0.00600
C1165       C  0.88054559  0.89758858  0.15936461    -0.11600
C1166       C  0.86031007  0.90001302  0.12229088     0.03100
C1167       C  0.87230459  0.87260281  0.08861745    -0.11000
H1168       H  0.94187870  0.81420476  0.13702606     0.08700
H1169       H  0.87352633  0.91988972  0.18405839     0.06200
H1170       H  0.85721339  0.87430209  0.05976515     0.06100
C1171       C  0.62450962  0.83940456  0.37194017     0.03100
C1172       C  0.65260066  0.87788596  0.36919483    -0.13000
C1173       C  0.64782465  0.92070425  0.34533111     0.00600
C1174       C  0.61461060  0.92357949  0.32157193    -0.11600
C1175       C  0.58682588  0.88399773  0.32275523     0.03100
C1176       C  0.59187251  0.84262781  0.34922656    -0.11000
H1177       H  0.67654674  0.87451839  0.38893436     0.08700
H1178       H  0.61036401  0.95595348  0.30269475     0.06200
H1179       H  0.57031995  0.81227532  0.35238649     0.06100
C1180       C  0.68072413  0.58124683  0.12761499     0.03100
C1181       C  0.64453002  0.57473360  0.17037579    -0.13000
C1182       C  0.60684043  0.59451647  0.16892491     0.00600
C1183       C  0.60646610  0.62222691  0.12559181    -0.11600
C1184       C  0.64242028  0.63164403  0.08370414     0.03100
C1185       C  0.67945462  0.61042415  0.08457254    -0.11000
H1186       H  0.64474915  0.55282535  0.20376066     0.08700
H1187       H  0.57766081  0.63815146  0.12518600     0.06200
H1188       H  0.70694859  0.61633477  0.05191135     0.06100
O1189       O  0.92842089  0.63664893  0.27728068    -0.73000
O1190       O  0.53012002  0.58757943  0.20252080    -0.73900
O1191       O  0.95343272  0.55379737  0.28467467    -0.62600
O1192       O  0.00608783  0.67251548  0.19556740    -0.71000
O1193       O  0.54293154  0.68493334  0.24656826    -0.70500
O1194       O  0.49241913  0.56510515  0.33417255    -0.61800
O1195       O  0.57023232  0.60146046  0.25011265    -0.74300
O1196       O  0.96500304  0.64872926  0.32873388    -0.73100
Cu1197     Cu  0.97836585  0.61203589  0.23836093     1.04600
Cu1198     Cu  0.51900594  0.62552566  0.29172380     1.04300
C1199       C  0.92926523  0.64680043  0.31707147     0.93200
C1200       C  0.56723533  0.59134652  0.21077790     0.92400
C1201       C  0.96211199  0.54211672  0.32468936     0.84500
C1202       C  0.03472261  0.69684017  0.20631622     0.90800
O1203       O  0.60833268  0.68870195  0.04851631    -0.73000
O1204       O  0.59471797  0.78550178  0.44547318    -0.73900
O1205       O  0.56893085  0.69276512  0.97587607    -0.62600
O1206       O  0.63293083  0.78052127  0.01971339    -0.71000
O1207       O  0.69455231  0.76611863  0.47062871    -0.70500
O1208       O  0.62728535  0.67980348  0.42188532    -0.61800
O1209       O  0.65705330  0.77510191  0.39531430    -0.71900
O1210       O  0.66779466  0.67238579  0.99934437    -0.73100
Cu1211     Cu  0.59912099  0.73704675  0.99886090     1.04600
Cu1212     Cu  0.66399043  0.72268964  0.44468589     1.04300
C1213       C  0.63976234  0.66553856  0.04143558     0.93200
C1214       C  0.62512499  0.79741410  0.40518179     0.92400
C1215       C  0.58594756  0.67292394  0.44248345     0.84500
C1216       C  0.67448436  0.78626159  0.50238559     0.90800
O1217       O  0.79781125  0.93236966  0.16002393    -0.73000
O1218       O  0.71806842  0.52787944  0.16562401    -0.73900
O1219       O  0.70796878  0.94111821  0.15574024    -0.62600
O1220       O  0.80450820  0.02180297  0.16926105    -0.71000
O1221       O  0.83166327  0.55070494  0.09009229    -0.70500
O1222       O  0.73864646  0.46392286  0.07601900    -0.61800
O1223       O  0.74418096  0.55197224  0.08587665    -0.74300
O1224       O  0.82797155  0.95818667  0.08096299    -0.73100
Cu1225     Cu  0.75679418  0.97947342  0.16527723     1.04600
Cu1226     Cu  0.78698416  0.50649392  0.08031665     1.04300
C1227       C  0.82675940  0.93117540  0.12052150     0.93200
C1228       C  0.71676275  0.55332323  0.12641719     0.92400
C1229       C  0.70553411  0.44596179  0.11272901     0.84500
C1230       C  0.83044517  0.55116139  0.13354361     0.90800
O1231       O  0.93736924  0.83616150  0.23054399    -0.73000
O1232       O  0.52536556  0.84726386  0.30562815    -0.73900
O1233       O  0.93590568  0.85611557  0.32316090    -0.62600
O1234       O  0.02412565  0.82415923  0.21854540    -0.71000
O1235       O  0.54887869  0.89413887  0.17616647    -0.70500
O1236       O  0.46025123  0.92757154  0.28560227    -0.61800
O1237       O  0.55045059  0.91759940  0.26579091    -0.74300
O1238       O  0.95988498  0.90792084  0.19408912    -0.73100
Cu1239     Cu  0.97978707  0.83862165  0.27074051     1.04600
Cu1240     Cu  0.50527661  0.91458756  0.22914104     1.04300
C1241       C  0.93639391  0.87057809  0.19871980     0.93200
C1242       C  0.55241946  0.88341301  0.29707504     0.92400
C1243       C  0.93602768  0.89754256  0.32218674     0.84500
C1244       C  0.04963923  0.85199671  0.18156547     0.90800
O1245       O  0.78601149  0.02270890  0.31587524    -0.73000
O1246       O  0.70834607  0.97331992  0.44851893    -0.73900
O1247       O  0.71220375  0.95299171  0.35989251    -0.62600
O1248       O  0.78233898  0.54275740  0.40365879    -0.71000
O1249       O  0.73836532  0.59288117  0.39232392    -0.70500
O1250       O  0.66461693  0.99912504  0.34994934    -0.61800
O1251       O  0.66222484  0.52194708  0.44071180    -0.74300
O1252       O  0.74099495  0.57112402  0.30330288    -0.73100
Cu1253     Cu  0.74834512  0.99634716  0.38247306     1.04600
Cu1254     Cu  0.69963255  0.54798960  0.37119040     1.04300
C1255       C  0.77763076  0.55661684  0.28951101     0.93200
C1256       C  0.67302689  0.48846671  0.46569701     0.92400
C1257       C  0.67644547  0.96016942  0.35041319     0.84500
C1258       C  0.77405048  0.58298050  0.40067101     0.90800
O1259       O  0.87354047  0.74853431  0.43620915    -0.73000
O1260       O  0.92055160  0.82244051  0.01579054    -0.73900
O1261       O  0.95172522  0.75574669  0.45724260    -0.62600
O1262       O  0.84571307  0.81303369  0.49247873    -0.71000
O1263       O  0.81753014  0.75832838  0.05789430    -0.70500
O1264       O  0.92286444  0.69939091  0.02062668    -0.61800
O1265       O  0.89409608  0.76614631  0.08025776    -0.74300
O1266       O  0.84301222  0.69300130  0.50066192    -0.73100
Cu1267     Cu  0.89926663  0.78666491  0.47334823     1.04600
Cu1268     Cu  0.86886840  0.72732893  0.04221260     1.04300
C1269       C  0.85285144  0.70869953  0.45493795     0.93200
C1270       C  0.90798335  0.80799121  0.06187203     0.92400
C1271       C  0.95099175  0.71555515  0.47941399     0.84500
C1272       C  0.81597465  0.79599778  0.53230809     0.90800
C1273       C  0.64730930  0.46728470  0.51596594    -0.05500
C1274       C  0.64990674  0.42176681  0.53177563    -0.32900
C1275       C  0.65898182  0.40817176  0.07538423     0.36300
C1276       C  0.66307467  0.43899255  0.10347908    -0.05800
C1277       C  0.64427466  0.97839544  0.09548986    -0.32800
C1278       C  0.63791933  0.99359717  0.55062929     0.36200
H1279       H  0.65410992  0.39989977  0.50650018     0.16600
O1280       O  0.67189038  0.36741982  0.08585591    -0.60300
H1281       H  0.64369972  0.00121096  0.11927292     0.16600
O1282       O  0.63224895  0.03742837  0.53751894    -0.60400
H1283       H  0.60067478  0.03805196  0.55271965     0.43600
H1284       H  0.70358761  0.37336701  0.08248825     0.43600
C1285       C  0.85332346  0.58869262  0.14563461    -0.05500
C1286       C  0.87561289  0.07342225  0.17884339    -0.32900
C1287       C  0.85205116  0.06401661  0.22820461     0.36300
C1288       C  0.81046601  0.57827697  0.24255386    -0.05800
C1289       C  0.79928864  0.61026184  0.20859776    -0.32800
C1290       C  0.82367170  0.61838606  0.15943781     0.36200
H1291       H  0.90400967  0.05696669  0.16748323     0.16600
O1292       O  0.86765739  0.03730054  0.26065414    -0.60300
H1293       H  0.76961776  0.62506274  0.21890280     0.16600
O1294       O  0.80796883  0.64293461  0.12551872    -0.60400
H1295       H  0.81988226  0.67451700  0.12272179     0.43600
H1296       H  0.86198228  0.00644637  0.25588813     0.43600
C1297       C  0.55494265  0.64796127  0.42488847    -0.05500
C1298       C  0.54325081  0.67829154  0.89038021    -0.32900
C1299       C  0.00830599  0.70152633  0.90707469     0.36300
C1300       C  0.98144170  0.68722442  0.45593850    -0.05800
C1301       C  0.98393280  0.64429321  0.48165846    -0.32800
C1302       C  0.51960101  0.62249152  0.46345354     0.36200
H1303       H  0.56712850  0.69275248  0.85542835     0.16600
O1304       O  0.00330560  0.73957567  0.87725955    -0.60300
H1305       H  0.96099121  0.62959797  0.51709778     0.16600
O1306       O  0.52629221  0.58487499  0.49235415    -0.60400
H1307       H  0.51344278  0.55944752  0.48178567     0.43600
H1308       H  0.99528253  0.72943845  0.85033451     0.43600
C1309       C  0.77737032  0.81787937  0.54576506    -0.05500
C1310       C  0.77164206  0.85099777  0.50888958    -0.32900
C1311       C  0.73317670  0.84551278  0.49630978     0.36300
C1312       C  0.70006635  0.81029339  0.52469454    -0.05800
C1313       C  0.70133954  0.78767786  0.07011697    -0.32800
C1314       C  0.74030301  0.79275724  0.08172642     0.36200
H1315       H  0.79948201  0.87393645  0.48340311     0.16600
O1316       O  0.73017362  0.87063696  0.45382099    -0.60300
H1317       H  0.67467634  0.76189270  0.09323374     0.16600
O1318       O  0.74409670  0.76675579  0.12347532    -0.60400
H1319       H  0.73864186  0.73514904  0.12088890     0.43600
H1320       H  0.74667558  0.85684784  0.42789445     0.43600
C1321       C  0.91339975  0.91203441  0.36571965    -0.05500
C1322       C  0.44318945  0.92440962  0.38985904    -0.32900
C1323       C  0.45756952  0.47016163  0.38327015     0.36300
C1324       C  0.93686036  0.50098875  0.35872671    -0.05800
C1325       C  0.89532410  0.48635873  0.35518520    -0.32800
C1326       C  0.88293485  0.94078897  0.35943364     0.36200
H1327       H  0.46392460  0.90078684  0.40028322     0.16600
O1328       O  0.49605513  0.48346642  0.39194848    -0.60300
H1329       H  0.87628389  0.51019608  0.34173401     0.16600
O1330       O  0.84870379  0.92733576  0.34339668    -0.60400
H1331       H  0.82243650  0.92173376  0.37211584     0.43600
H1332       H  0.48706948  0.49449051  0.42220999     0.43600
C1333       C  0.05828221  0.73972067  0.17338649    -0.05500
C1334       C  0.59465098  0.76106341  0.18277937    -0.32900
C1335       C  0.60635426  0.80758088  0.16721600     0.36300
C1336       C  0.07850664  0.83193223  0.14640309    -0.05800
C1337       C  0.05491290  0.80985268  0.12153300    -0.32800
C1338       C  0.04192468  0.76333276  0.13762901     0.36200
H1339       H  0.61033709  0.74294533  0.20715022     0.16600
O1340       O  0.63409391  0.82902935  0.18687543    -0.60300
H1341       H  0.03691785  0.82875927  0.10045806     0.16600
O1342       O  0.00904061  0.74314842  0.12381149    -0.60400
H1343       H  0.02431357  0.73127138  0.09566800     0.43600
H1344       H  0.66311424  0.81972360  0.17413884     0.43600
C1345       C  0.88741713  0.65117422  0.85193109     0.03100
C1346       C  0.84944213  0.62140532  0.85820338    -0.13000
C1347       C  0.81074077  0.61882572  0.89631034     0.00600
C1348       C  0.81012077  0.64791878  0.92856581    -0.11600
C1349       C  0.84814899  0.67912298  0.92158097     0.03100
C1350       C  0.88625656  0.67991341  0.88341231    -0.11000
H1351       H  0.85056908  0.59839450  0.83428584     0.08700
H1352       H  0.78108840  0.64588711  0.95873854     0.06200
H1353       H  0.91596804  0.70200532  0.87928268     0.06100
C1354       C  0.90135326  0.84044319  0.59412497     0.03100
C1355       C  0.91935506  0.83760940  0.63292575    -0.13000
C1356       C  0.91042788  0.86712947  0.66454391     0.00600
C1357       C  0.88061385  0.89737952  0.65932767    -0.11600
C1358       C  0.86032894  0.89976409  0.62228388     0.03100
C1359       C  0.87226805  0.87224460  0.58870472    -0.11000
H1360       H  0.94184462  0.81387433  0.63716311     0.08700
H1361       H  0.87365331  0.91974200  0.68395785     0.06200
H1362       H  0.85717830  0.87390919  0.55985546     0.06100
C1363       C  0.62439989  0.83961917  0.87209171     0.03100
C1364       C  0.65257127  0.87810171  0.86916243    -0.13000
C1365       C  0.64776385  0.92089642  0.84527048     0.00600
C1366       C  0.61444480  0.92374335  0.82167001    -0.11600
C1367       C  0.58659410  0.88415462  0.82302695     0.03100
C1368       C  0.59164699  0.84281833  0.84955084    -0.11000
H1369       H  0.67661505  0.87475882  0.88877295     0.08700
H1370       H  0.61019557  0.95609630  0.80274504     0.06200
H1371       H  0.57004332  0.81246297  0.85284109     0.06100
C1372       C  0.68036837  0.58078570  0.62754566     0.03100
C1373       C  0.64412391  0.57422086  0.67026433    -0.13000
C1374       C  0.60645707  0.59404113  0.66878028     0.00600
C1375       C  0.60613841  0.62180372  0.62545395    -0.11600
C1376       C  0.64216848  0.63131325  0.58364447     0.03100
C1377       C  0.67917558  0.61005835  0.58453351    -0.11000
H1378       H  0.64430694  0.55228295  0.70364696     0.08700
H1379       H  0.57735056  0.63775007  0.62501000     0.06200
H1380       H  0.70672588  0.61604471  0.55191754     0.06100
O1381       O  0.92836038  0.63677426  0.77710179    -0.73000
O1382       O  0.52976360  0.58731307  0.70242688    -0.73900
O1383       O  0.95320895  0.55381147  0.78480324    -0.62600
O1384       O  0.00598254  0.67241393  0.69523034    -0.71000
O1385       O  0.54284530  0.68472336  0.74625258    -0.70500
O1386       O  0.49236484  0.56510599  0.83414396    -0.61800
O1387       O  0.56999619  0.60119268  0.74990421    -0.74300
O1388       O  0.96500696  0.64876521  0.82852612    -0.73100
Cu1389     Cu  0.97816545  0.61197279  0.73824206     1.04600
Cu1390     Cu  0.51891509  0.62542633  0.79151665     1.04300
C1391       C  0.92926115  0.64692361  0.81687531     0.93200
C1392       C  0.56690106  0.59100162  0.71063689     0.92400
C1393       C  0.96199060  0.54213281  0.82476929     0.84500
C1394       C  0.03467145  0.69666795  0.70598817     0.90800
O1395       O  0.60833307  0.68866331  0.54854551    -0.73000
O1396       O  0.59474690  0.78576101  0.94566428    -0.73900
O1397       O  0.56876137  0.69245029  0.47601770    -0.62600
O1398       O  0.63308153  0.78051484  0.51938772    -0.71000
O1399       O  0.69442818  0.76642969  0.97070383    -0.70500
O1400       O  0.62745462  0.67995960  0.92187274    -0.61800
O1401       O  0.65697800  0.77530956  0.89535799    -0.71900
O1402       O  0.66761646  0.67208695  0.49932452    -0.73100
Cu1403     Cu  0.59911248  0.73690334  0.49878176     1.04600
Cu1404     Cu  0.66403442  0.72293981  0.94470980     1.04300
C1405       C  0.63962994  0.66533567  0.54142965     0.93200
C1406       C  0.62508251  0.79764999  0.90531742     0.92400
C1407       C  0.58611297  0.67315498  0.94242876     0.84500
C1408       C  0.67432238  0.78641163  0.00260463     0.90800
O1409       O  0.79790378  0.93228316  0.66000316    -0.73000
O1410       O  0.71782854  0.52753867  0.66556988    -0.73900
O1411       O  0.70795839  0.94071093  0.65581796    -0.62600
O1412       O  0.80436404  0.02183235  0.66906036    -0.71000
O1413       O  0.83137958  0.55054661  0.58990039    -0.70500
O1414       O  0.73842699  0.46344046  0.57609800    -0.61800
O1415       O  0.74383716  0.55154056  0.58580565    -0.74300
O1416       O  0.82784852  0.95785381  0.58088669    -0.73100
Cu1417     Cu  0.75672875  0.97928523  0.66521136     1.04600
Cu1418     Cu  0.78674406  0.50616340  0.58024481     1.04300
C1419       C  0.82676378  0.93096211  0.62048355     0.93200
C1420       C  0.71644279  0.55290742  0.62635436     0.92400
C1421       C  0.70537895  0.44545852  0.61287832     0.84500
C1422       C  0.83020403  0.55109898  0.63332429     0.90800
O1423       O  0.93743474  0.83600450  0.73059219    -0.73000
O1424       O  0.52525106  0.84730427  0.80584049    -0.73900
O1425       O  0.93584438  0.85614125  0.82318002    -0.62600
O1426       O  0.02425457  0.82399429  0.71884312    -0.71000
O1427       O  0.54909550  0.89396101  0.67646123    -0.70500
O1428       O  0.46005553  0.92756832  0.78544385    -0.61800
O1429       O  0.55022315  0.91767435  0.76605151    -0.74300
O1430       O  0.96006067  0.90770060  0.69392907    -0.73100
Cu1431     Cu  0.97978698  0.83855768  0.77088331     1.04600
Cu1432     Cu  0.50526672  0.91449769  0.72918432     1.04300
C1433       C  0.93650248  0.87037052  0.69867516     0.93200
C1434       C  0.55221398  0.88350671  0.79734022     0.92400
C1435       C  0.93590662  0.89757925  0.82211073     0.84500
C1436       C  0.04988911  0.85181897  0.68193658     0.90800
O1437       O  0.78599541  0.02296926  0.81539482    -0.73000
O1438       O  0.70852448  0.97365985  0.94813274    -0.73900
O1439       O  0.71223016  0.95322538  0.85961085    -0.62600
O1440       O  0.78233008  0.54301819  0.90329666    -0.71000
O1441       O  0.73834207  0.59315021  0.89206728    -0.70500
O1442       O  0.66465860  0.99936213  0.84959706    -0.61800
O1443       O  0.66222031  0.52218148  0.94045486    -0.74300
O1444       O  0.74081777  0.57145858  0.80302854    -0.73100
Cu1445     Cu  0.74842340  0.99664559  0.88204307     1.04600
Cu1446     Cu  0.69954580  0.54827077  0.87094477     1.04300
C1447       C  0.77743126  0.55692627  0.78919554     0.93200
C1448       C  0.67304489  0.48870674  0.96542026     0.92400
C1449       C  0.67645470  0.96038709  0.85016740     0.84500
C1450       C  0.77403880  0.58323556  0.90038308     0.90800
O1451       O  0.87350301  0.74869043  0.93610933    -0.73000
O1452       O  0.92055419  0.82212460  0.51595180    -0.73900
O1453       O  0.95176922  0.75601594  0.95703117    -0.62600
O1454       O  0.84569183  0.81322801  0.99235766    -0.71000
O1455       O  0.81762048  0.75822501  0.55811190    -0.70500
O1456       O  0.92262281  0.69893322  0.52059689    -0.61800
O1457       O  0.89422283  0.76574627  0.58035240    -0.74300
O1458       O  0.84329291  0.69307106  0.00055220    -0.73100
Cu1459     Cu  0.89925890  0.78690098  0.97319479     1.04600
Cu1460     Cu  0.86879033  0.72706550  0.54231822     1.04300
C1461       C  0.85297351  0.70879016  0.95484663     0.93200
C1462       C  0.90801383  0.80762072  0.56201586     0.92400
C1463       C  0.95116892  0.71591677  0.97937574     0.84500
C1464       C  0.81591364  0.79614279  0.03213794     0.90800
C1465       C  0.64737492  0.46758778  0.01570954    -0.05500
C1466       C  0.65002767  0.42210393  0.03162548    -0.32900
C1467       C  0.65880352  0.40769623  0.57554471     0.36300
C1468       C  0.66285815  0.43840978  0.60376945    -0.05800
C1469       C  0.64392625  0.97772226  0.59596745    -0.32800
C1470       C  0.63822856  0.99414196  0.05015231     0.36200
H1471       H  0.65421270  0.40016010  0.00642975     0.16600
O1472       O  0.67168914  0.36691647  0.58591424    -0.60300
H1473       H  0.64329044  0.00045037  0.61985376     0.16600
O1474       O  0.63257944  0.03796373  0.03691246    -0.60400
H1475       H  0.60093188  0.03853543  0.05172753     0.43600
H1476       H  0.70335135  0.37282963  0.58274435     0.43600
C1477       C  0.85306453  0.58871164  0.64532730    -0.05500
C1478       C  0.87552407  0.07362263  0.67841664    -0.32900
C1479       C  0.85203328  0.06438449  0.72779610     0.36300
C1480       C  0.81024354  0.57854281  0.74222016    -0.05800
C1481       C  0.79904753  0.61043236  0.70819529    -0.32800
C1482       C  0.82342903  0.61844837  0.65904173     0.36200
H1483       H  0.90394823  0.05719716  0.66709216     0.16600
O1484       O  0.86777429  0.03796398  0.76034812    -0.60300
H1485       H  0.76938066  0.62524938  0.71845592     0.16600
O1486       O  0.80780183  0.64300842  0.62505973    -0.60400
H1487       H  0.81925614  0.67463128  0.62272529     0.43600
H1488       H  0.86227422  0.00702949  0.75573297     0.43600
C1489       C  0.55505448  0.64808333  0.92501600    -0.05500
C1490       C  0.54321814  0.67832196  0.39030933    -0.32900
C1491       C  0.00818207  0.70143412  0.40703716     0.36300
C1492       C  0.98165298  0.68752367  0.95603186    -0.05800
C1493       C  0.98418114  0.64467352  0.98193849    -0.32800
C1494       C  0.51976756  0.62275587  0.96380802     0.36200
H1495       H  0.56717226  0.69295478  0.35545214     0.16600
O1496       O  0.00316094  0.73954917  0.37733819    -0.60300
H1497       H  0.96133646  0.63016228  0.01748151     0.16600
O1498       O  0.52655214  0.58544829  0.99312438    -0.60400
H1499       H  0.52367185  0.56088891  0.97619339     0.43600
H1500       H  0.99516573  0.72950030  0.35034827     0.43600
C1501       C  0.77733689  0.81807105  0.04558806    -0.05500
C1502       C  0.77158552  0.85111727  0.00866342    -0.32900
C1503       C  0.73305577  0.84563073  0.99622262     0.36300
C1504       C  0.69990278  0.81054114  0.02481459    -0.05800
C1505       C  0.70144393  0.78729774  0.56996657    -0.32800
C1506       C  0.74031491  0.79241588  0.58174826     0.36200
H1507       H  0.79942878  0.87394165  0.98303039     0.16600
O1508       O  0.73007254  0.87049190  0.95359054    -0.60300
H1509       H  0.67480351  0.76142070  0.59294132     0.16600
O1510       O  0.74404586  0.76627557  0.62345688    -0.60400
H1511       H  0.73866735  0.73470563  0.62071277     0.43600
H1512       H  0.74658330  0.85653524  0.92781395     0.43600
C1513       C  0.91340208  0.91212293  0.86566086    -0.05500
C1514       C  0.44327852  0.92446753  0.88971183    -0.32900
C1515       C  0.45754211  0.47016917  0.88328648     0.36300
C1516       C  0.93677754  0.50101784  0.85886637    -0.05800
C1517       C  0.89522936  0.48639318  0.85535442    -0.32800
C1518       C  0.88286585  0.94083577  0.85954896     0.36200
H1519       H  0.46410500  0.90087608  0.89997644     0.16600
O1520       O  0.49597903  0.48351923  0.89203097    -0.60300
H1521       H  0.87618154  0.51023459  0.84190380     0.16600
O1522       O  0.84856019  0.92735431  0.84363798    -0.60400
H1523       H  0.82207569  0.92378185  0.87177854     0.43600
H1524       H  0.48693087  0.48900890  0.92521169     0.43600
C1525       C  0.05838411  0.73952901  0.67312887    -0.05500
C1526       C  0.59480028  0.76061871  0.68268051    -0.32900
C1527       C  0.60650528  0.80715006  0.66757790     0.36300
C1528       C  0.07877164  0.83173986  0.64680021    -0.05800
C1529       C  0.05522673  0.80996706  0.62166829    -0.32800
C1530       C  0.04208692  0.76344754  0.63750029     0.36200
H1531       H  0.61045330  0.74227076  0.70693916     0.16600
O1532       O  0.63422021  0.82828347  0.68750056    -0.60300
H1533       H  0.03729836  0.82908260  0.60067544     0.16600
O1534       O  0.00907708  0.74356547  0.62364271    -0.60400
H1535       H  0.02420028  0.73327003  0.59429140     0.43600
H1536       H  0.66331153  0.81926698  0.67437111     0.43600
loop_ 
_geom_bond_atom_site_label_1 
_geom_bond_atom_site_label_2 
_geom_bond_distance 
_geom_bond_site_symmetry_2 
_ccdc_geom_bond_type 
C1            C2   1.403       .  A
C1            C6   1.393       .  A
C1           C47   1.484       .  S
C2            C3   1.410       .  A
C2            H7   1.085       .  S
C3            C4   1.420       .  A
C3          C106   1.497       .  S
C4            C5   1.424       .  A
C4            H8   1.083       .  S
C5            C6   1.409       .  A
C5          C117   1.487       .  S
C6            H9   1.083       .  S
C10          C11   1.408       .  A
C10          C15   1.426       .  A
C10         C118   1.499       .  S
C11          C12   1.412       .  A
C11          H16   1.084       .  S
C12          C13   1.408       .  A
C12          C89   1.485       .  S
C13          C14   1.409       .  A
C13          H17   1.084       .  S
C14          C15   1.416       .  A
C14          C75   1.507       .  S
C15          H18   1.083       .  S
C19          C20   1.397       .  A
C19          C24   1.390       .  A
C19          C62   1.469       .  S
C20          C21   1.411       .  A
C20          H25   1.084       .  S
C21          C22   1.426       .  A
C21         C105   1.511       .  S
C22          C23   1.432       .  A
C22          H26   1.083       .  S
C23          C24   1.407       .  A
C23          C90   1.500       .  S
C24          H27   1.083       .  S
C28          C29   1.425       .  A
C28          C33   1.419       .  A
C28          C76   1.495       .  S
C29          C30   1.407       .  A
C29          H34   1.083       .  S
C30          C31   1.397       .  A
C30          C48   1.487       .  S
C31          C32   1.399       .  A
C31          H35   1.084       .  S
C32          C33   1.408       .  A
C32          C61   1.491       .  S
C33          H36   1.083       .  S
O37         Cu45   1.995       .  S
O37          C47   1.275       .  A
O38        Cu813   1.997   1_455  S
O38          C48   1.278       .  A
O39         Cu45   1.980       .  S
O39          C49   1.278       .  A
O40         Cu45   2.008       .  S
O40          C50   1.277       .  A
O41         Cu46   1.989       .  S
O41         C818   1.278       .  A
O42         Cu46   1.997   1_655  S
O42         C817   1.275       .  A
O43         Cu46   2.048       .  S
O43          C48   1.281       .  A
O44        Cu814   2.041       .  S
O44          C47   1.283       .  A
Cu45        O806   1.997       .  S
Cu45       Cu814   2.371       .  S
Cu46        O812   2.041   1_455  S
Cu46       Cu813   2.371   1_455  S
C49         C172   1.465       .  S
C49         O810   1.275       .  A
C50         C181   1.477       .  S
C50         O809   1.278       .  A
O51         Cu59   1.980   1_554  S
O51          C61   1.278       .  A
O52        Cu251   1.995       .  S
O52          C62   1.275       .  A
O53         Cu59   1.931       .  S
O53         C255   1.274       .  A
O54         Cu59   1.940   1_554  S
O54         C256   1.266       .  A
O55         Cu60   1.973       .  S
O55          C64   1.277       .  A
O56         Cu60   2.017       .  S
O56          C63   1.276       .  A
O57         Cu60   2.027       .  S
O57          C62   1.280       .  A
O58        Cu252   2.051       .  S
O58          C61   1.282   1_556  A
Cu59        O244   1.995       .  S
Cu59       Cu252   2.378       .  S
Cu60        O250   2.051       .  S
Cu60       Cu251   2.378       .  S
C63         C145   1.464       .  S
C63         O245   1.274       .  A
C64         C160   1.423       .  S
C64         O246   1.266       .  A
O65         Cu73   2.039       .  S
O65          C75   1.282       .  A
O66        Cu457   2.019   1_545  S
O66          C76   1.279       .  A
O67         Cu73   1.990       .  S
O67         C461   1.272       .  A
O68         Cu73   1.963       .  S
O68         C462   1.278       .  A
O69         Cu74   2.003       .  S
O69          C78   1.272       .  A
O70         Cu74   1.985   1_565  S
O70          C77   1.280       .  A
O71         Cu74   2.040       .  S
O71          C76   1.283       .  A
O72        Cu458   2.069       .  S
O72          C75   1.284       .  A
Cu73        O450   2.019       .  S
Cu73       Cu458   2.371       .  S
Cu74        O456   2.069   1_545  S
Cu74       Cu457   2.371   1_545  S
C77         C124   1.466       .  S
C77         O451   1.272       .  A
C78         C133   1.465       .  S
C78         O452   1.278       .  A
O79         Cu87   2.039       .  S
O79          C89   1.282       .  A
O80        Cu855   2.030   1_455  S
O80          C90   1.286       .  A
O81         Cu87   1.975       .  S
O81          C91   1.267       .  A
O82         Cu87   1.935       .  S
O82          C92   1.272       .  A
O83         Cu88   2.027       .  S
O83         C860   1.277       .  A
O84         Cu88   2.010   1_655  S
O84         C859   1.285       .  A
O85         Cu88   2.037       .  S
O85          C90   1.277       .  A
O86        Cu856   2.020       .  S
O86          C89   1.278       .  A
Cu87        O848   2.030       .  S
Cu87       Cu856   2.375       .  S
Cu88        O854   2.020   1_455  S
Cu88       Cu855   2.375   1_455  S
C91         C169   1.459       .  S
C91         O852   1.285       .  A
C92         C184   1.457       .  S
C92         O851   1.277       .  A
O93        Cu101   1.970       .  S
O93         C487   1.273       .  A
O94        Cu101   1.967       .  S
O94         C488   1.275       .  A
O95        Cu101   2.012       .  S
O95         C105   1.280       .  A
O96        Cu485   2.014   1_545  S
O96         C106   1.279       .  A
O97        Cu102   2.070       .  S
O97         C106   1.284       .  A
O98        Cu486   2.087       .  S
O98         C105   1.286       .  A
O99        Cu102   2.031       .  S
O99         C104   1.279   1_545  A
O100       Cu102   2.023       .  S
O100        C103   1.281       .  A
Cu101       O480   2.014       .  S
Cu101      Cu486   2.366       .  S
Cu102       O482   2.087   1_545  S
Cu102      Cu485   2.366   1_545  S
C103        C136   1.479       .  S
C103        O477   1.273       .  A
C104        C121   1.470       .  S
C104        O478   1.275       .  A
O107       Cu115   2.016       .  S
O107        C117   1.281       .  A
O108       Cu307   2.023   1_554  S
O108        C118   1.280       .  A
O109       Cu115   1.993       .  S
O109        C119   1.277       .  A
O110       Cu115   1.952       .  S
O110        C120   1.273       .  A
O111       Cu116   1.963       .  S
O111        C312   1.275       .  A
O112       Cu116   2.001       .  S
O112        C311   1.278   1_554  A
O113       Cu116   2.043       .  S
O113        C118   1.283       .  A
O114       Cu308   2.044       .  S
O114        C117   1.280       .  A
Cu115       O300   2.022       .  S
Cu115      Cu308   2.368       .  S
Cu116       O306   2.044       .  S
Cu116      Cu307   2.368   1_554  S
C119        C148   1.482       .  S
C119        O304   1.278       .  A
C120        C157   1.456       .  S
C120        O303   1.275       .  A
C121        C122   1.405       .  A
C121        C510   1.405       .  A
C122        C315   1.394       .  A
C122        H127   1.084       .  S
C123        C124   1.391       .  A
C123        C314   1.394       .  A
C123        O128   1.360       .  S
C124        C509   1.405       .  A
C125        C508   1.405       .  A
C125        C318   1.403       .  A
C125        H129   1.079       .  S
C126        C505   1.405       .  A
C126        C317   1.403       .  A
C126        O130   1.371       .  S
O128        H132   0.990       .  S
O130        H131   0.991       .  S
C133        C138   1.408       .  A
C133        C518   1.398       .  A
C134        C135   1.401       .  A
C134        C517   1.398       .  A
C134        H139   1.084       .  S
C135        C520   1.420       .  A
C135        O140   1.369       .  S
C136        C137   1.407       .  A
C136        C519   1.420       .  A
C137        C138   1.405       .  A
C137        H141   1.083       .  S
C138        O142   1.370       .  S
O140        H144   0.993       .  S
O142        H143   0.991       .  S
C145        C150   1.409       .  A
C145        C338   1.400       .  A
C146        C337   1.400       .  A
C146        C915   1.406       .  A
C146        H151   1.084       .  S
C147        C914   1.406       .  A
C147        C340   1.419       .  A
C147        O152   1.372       .  S
C148        C149   1.412       .  A
C148        C339   1.419       .  A
C149        C918   1.406       .  A
C149        H153   1.083       .  S
C150        C917   1.406   1_455  A
C150        O154   1.370       .  S
O152        H156   0.992       .  S
O154        H155   0.992       .  S
C157        C158   1.404       .  A
C157        C354   1.405       .  A
C158        C159   1.388       .  A
C158        H163   1.084       .  S
C159        C160   1.400       .  A
C159        O164   1.372       .  S
C160        C353   1.399       .  A
C161        C162   1.387       .  A
C161        C352   1.400       .  A
C161        H165   1.085       .  S
C162        C349   1.405       .  A
C162        O166   1.375       .  S
O164        H168   0.991       .  S
O166        H167   0.993       .  S
C169        C174   1.399       .  A
C169        C938   1.405       .  A
C170        C937   1.405       .  A
C170        C555   1.399       .  A
C170        H175   1.084       .  S
C171        C554   1.399       .  A
C171        C940   1.405   1_565  A
C171        O176   1.371       .  S
C172        C173   1.405   1_545  A
C172        C939   1.405   1_545  A
C173        C558   1.394       .  A
C173        H177   1.081   1_565  S
C174        C557   1.394       .  A
C174        O178   1.371       .  S
O176        H180   0.991       .  S
O178        H179   0.990       .  S
C181        C186   1.411       .  A
C181        C950   1.407       .  A
C182        C183   1.398       .  A
C182        C949   1.407       .  A
C182        H187   1.084       .  S
C183        C952   1.406       .  A
C183        O188   1.373       .  S
C184        C185   1.405       .  A
C184        C951   1.406       .  A
C185        C186   1.404       .  A
C185        H189   1.084       .  S
C186        O190   1.371       .  S
O188        H192   0.992       .  S
O190        H191   0.991       .  S
C193        C194   1.403       .  A
C193        C198   1.392       .  A
C193        C239   1.484       .  S
C194        C195   1.409       .  A
C194        H199   1.085       .  S
C195        C196   1.421       .  A
C195        C298   1.497       .  S
C196        C197   1.424       .  A
C196        H200   1.083       .  S
C197        C198   1.409       .  A
C197        C309   1.488       .  S
C198        H201   1.083       .  S
C202        C203   1.407       .  A
C202        C207   1.426       .  A
C202        C310   1.499       .  S
C203        C204   1.411       .  A
C203        H208   1.084       .  S
C204        C205   1.408       .  A
C204        C281   1.485       .  S
C205        C206   1.410       .  A
C205        H209   1.084       .  S
C206        C207   1.416       .  A
C206        C267   1.507       .  S
C207        H210   1.083       .  S
C211        C212   1.397       .  A
C211        C216   1.390       .  A
C211        C254   1.469       .  S
C212        C213   1.411       .  A
C212        H217   1.084       .  S
C213        C214   1.426       .  A
C213        C297   1.511       .  S
C214        C215   1.431       .  A
C214        H218   1.083       .  S
C215        C216   1.407       .  A
C215        C282   1.500       .  S
C216        H219   1.083       .  S
C220        C221   1.425       .  A
C220        C225   1.419       .  A
C220        C268   1.495       .  S
C221        C222   1.407       .  A
C221        H226   1.083       .  S
C222        C223   1.397       .  A
C222        C240   1.487       .  S
C223        C224   1.399       .  A
C223        H227   1.084       .  S
C224        C225   1.408       .  A
C224        C253   1.491       .  S
C225        H228   1.083       .  S
O229       Cu237   1.994       .  S
O229        C239   1.275       .  A
O230      Cu1005   1.997   1_455  S
O230        C240   1.278       .  A
O231       Cu237   1.981       .  S
O231        C241   1.278       .  A
O232       Cu237   2.009       .  S
O232        C242   1.277       .  A
O233       Cu238   1.987       .  S
O233       C1010   1.278       .  A
O234       Cu238   1.996   1_655  S
O234       C1009   1.274       .  A
O235       Cu238   2.049       .  S
O235        C240   1.281       .  A
O236      Cu1006   2.042       .  S
O236        C239   1.283       .  A
Cu237       O998   1.997       .  S
Cu237     Cu1006   2.371       .  S
Cu238      O1004   2.042   1_455  S
Cu238     Cu1005   2.371   1_455  S
C241        C364   1.465       .  S
C241       O1002   1.274       .  A
C242        C373   1.477       .  S
C242       O1001   1.278       .  A
O243       Cu251   1.980       .  S
O243        C253   1.278       .  A
O244        C254   1.275       .  A
O245       Cu251   1.931       .  S
O246       Cu251   1.940       .  S
O247       Cu252   1.973       .  S
O247        C256   1.277   1_556  A
O248       Cu252   2.018       .  S
O248        C255   1.276       .  A
O249       Cu252   2.027       .  S
O249        C254   1.280       .  A
O250        C253   1.282       .  A
C255        C337   1.465       .  S
C256        C352   1.423       .  S
O257       Cu265   2.040       .  S
O257        C267   1.282       .  A
O258       Cu649   2.019   1_545  S
O258        C268   1.279       .  A
O259       Cu265   1.990       .  S
O259        C653   1.272       .  A
O260       Cu265   1.963       .  S
O260        C654   1.278       .  A
O261       Cu266   2.004       .  S
O261        C270   1.272       .  A
O262       Cu266   1.986   1_565  S
O262        C269   1.280       .  A
O263       Cu266   2.041       .  S
O263        C268   1.283       .  A
O264       Cu650   2.070       .  S
O264        C267   1.284       .  A
Cu265       O642   2.019       .  S
Cu265      Cu650   2.371       .  S
Cu266       O648   2.071   1_545  S
Cu266      Cu649   2.371   1_545  S
C269        C316   1.466       .  S
C269        O643   1.272       .  A
C270        C325   1.465       .  S
C270        O644   1.278       .  A
O271       Cu279   2.039       .  S
O271        C281   1.282       .  A
O272      Cu1047   2.030   1_455  S
O272        C282   1.286       .  A
O273       Cu279   1.975       .  S
O273        C283   1.267       .  A
O274       Cu279   1.936       .  S
O274        C284   1.272       .  A
O275       Cu280   2.027       .  S
O275       C1052   1.277       .  A
O276       Cu280   2.010   1_655  S
O276       C1051   1.285       .  A
O277       Cu280   2.035       .  S
O277        C282   1.277       .  A
O278      Cu1048   2.020       .  S
O278        C281   1.278       .  A
Cu279      O1040   2.030       .  S
Cu279     Cu1048   2.375       .  S
Cu280      O1046   2.020   1_455  S
Cu280     Cu1047   2.375   1_455  S
C283        C361   1.459       .  S
C283       O1044   1.285       .  A
C284        C376   1.457       .  S
C284       O1043   1.277       .  A
O285       Cu293   1.969       .  S
O285        C679   1.273       .  A
O286       Cu293   1.967       .  S
O286        C680   1.275       .  A
O287       Cu293   2.012       .  S
O287        C297   1.280       .  A
O288       Cu677   2.013   1_545  S
O288        C298   1.279       .  A
O289       Cu294   2.070       .  S
O289        C298   1.284       .  A
O290       Cu678   2.087       .  S
O290        C297   1.286       .  A
O291       Cu294   2.030       .  S
O291        C296   1.279   1_545  A
O292       Cu294   2.023       .  S
O292        C295   1.281       .  A
Cu293       O672   2.014       .  S
Cu293      Cu678   2.366       .  S
Cu294       O674   2.087   1_545  S
Cu294      Cu677   2.366   1_545  S
C295        C328   1.479       .  S
C295        O669   1.273       .  A
C296        C313   1.470   1_556  S
C296        O670   1.275       .  A
O299       Cu307   2.016       .  S
O299        C309   1.281       .  A
O300        C310   1.280       .  A
O301       Cu307   1.994       .  S
O301        C311   1.277       .  A
O302       Cu307   1.951       .  S
O302        C312   1.273   1_556  A
O303       Cu308   1.962       .  S
O304       Cu308   2.001       .  S
O305       Cu308   2.042       .  S
O305        C310   1.283       .  A
O306        C309   1.280   1_554  A
C311        C340   1.482       .  S
C312        C349   1.456       .  S
C313        C314   1.405       .  A
C313        C702   1.404       .  A
C314        H319   1.084       .  S
C315        C316   1.391       .  A
C315        O320   1.360       .  S
C316        C701   1.405       .  A
C317        C700   1.405       .  A
C317        H321   1.079       .  S
C318        C697   1.404       .  A
C318        O322   1.371       .  S
O320        H324   0.990       .  S
O322        H323   0.991       .  S
C325        C710   1.398       .  A
C325        C330   1.408       .  A
C326        C709   1.398       .  A
C326        C327   1.402       .  A
C326        H331   1.083       .  S
C327        C712   1.419       .  A
C327        O332   1.370       .  S
C328        C711   1.419       .  A
C328        C329   1.407       .  A
C329        C330   1.405       .  A
C329        H333   1.083       .  S
C330        O334   1.370       .  S
O332        H336   0.993       .  S
O334        H335   0.991       .  S
C337        C342   1.409       .  A
C338       C1107   1.406       .  A
C338        H343   1.084       .  S
C339       C1106   1.406       .  A
C339        O344   1.372       .  S
C340        C341   1.412       .  A
C341       C1110   1.406       .  A
C341        H345   1.083   1_556  S
C342       C1109   1.406   1_455  A
C342        O346   1.370       .  S
O344        H348   0.992       .  S
O346        H347   0.992       .  S
C349        C350   1.404       .  A
C350        C351   1.388   1_554  A
C350        H355   1.084   1_554  S
C351        C352   1.400   1_556  A
C351        O356   1.372       .  S
C353        C354   1.387       .  A
C353        H357   1.085       .  S
C354        O358   1.375       .  S
O356        H360   0.991       .  S
O358        H359   0.993       .  S
C361       C1130   1.405       .  A
C361        C366   1.399       .  A
C362       C1129   1.405       .  A
C362        C747   1.399       .  A
C362        H367   1.084       .  S
C363        C746   1.399       .  A
C363       C1132   1.406   1_565  A
C363        O368   1.371       .  S
C364       C1131   1.406   1_545  A
C364        C365   1.405   1_545  A
C365        C750   1.394       .  A
C365        H369   1.081   1_565  S
C366        C749   1.394       .  A
C366        O370   1.371       .  S
O368        H372   0.991       .  S
O370        H371   0.990       .  S
C373       C1142   1.407       .  A
C373        C378   1.411       .  A
C374       C1141   1.407       .  A
C374        C375   1.398       .  A
C374        H379   1.084       .  S
C375       C1144   1.406       .  A
C375        O380   1.373       .  S
C376       C1143   1.406       .  A
C376        C377   1.405       .  A
C377        C378   1.404       .  A
C377        H381   1.084       .  S
C378        O382   1.371       .  S
O380        H384   0.992       .  S
O382        H383   0.991       .  S
C385        C386   1.403       .  A
C385        C390   1.393       .  A
C385        C431   1.484       .  S
C386        C387   1.410       .  A
C386        H391   1.085       .  S
C387        C388   1.420       .  A
C387        C490   1.496       .  S
C388        C389   1.424       .  A
C388        H392   1.083       .  S
C389        C390   1.409       .  A
C389        C501   1.487       .  S
C390        H393   1.083       .  S
C394        C395   1.408       .  A
C394        C399   1.425       .  A
C394        C502   1.499       .  S
C395        C396   1.412       .  A
C395        H400   1.084       .  S
C396        C397   1.408       .  A
C396        C473   1.485       .  S
C397        C398   1.409       .  A
C397        H401   1.084       .  S
C398        C399   1.416       .  A
C398        C459   1.507       .  S
C399        H402   1.083       .  S
C403        C404   1.397       .  A
C403        C408   1.390       .  A
C403        C446   1.469       .  S
C404        C405   1.411       .  A
C404        H409   1.084       .  S
C405        C406   1.427       .  A
C405        C489   1.511       .  S
C406        C407   1.432       .  A
C406        H410   1.083       .  S
C407        C408   1.407       .  A
C407        C474   1.500       .  S
C408        H411   1.083       .  S
C412        C413   1.425       .  A
C412        C417   1.419       .  A
C412        C460   1.495       .  S
C413        C414   1.407       .  A
C413        H418   1.083       .  S
C414        C415   1.397       .  A
C414        C432   1.487       .  S
C415        C416   1.399       .  A
C415        H419   1.084       .  S
C416        C417   1.408       .  A
C416        C445   1.491       .  S
C417        H420   1.083       .  S
O421       Cu429   1.995       .  S
O421        C431   1.275       .  A
O422      Cu1197   1.997   1_455  S
O422        C432   1.278       .  A
O423       Cu429   1.980       .  S
O423        C433   1.278       .  A
O424       Cu429   2.008       .  S
O424        C434   1.277       .  A
O425       Cu430   1.989       .  S
O425       C1202   1.278       .  A
O426       Cu430   1.997   1_655  S
O426       C1201   1.275       .  A
O427       Cu430   2.048       .  S
O427        C432   1.281       .  A
O428      Cu1198   2.041       .  S
O428        C431   1.283       .  A
Cu429      O1190   1.997       .  S
Cu429     Cu1198   2.371       .  S
Cu430      O1196   2.041   1_455  S
Cu430     Cu1197   2.371   1_455  S
C433        C556   1.465       .  S
C433       O1194   1.275       .  A
C434        C565   1.477       .  S
C434       O1193   1.278       .  A
O435       Cu443   1.980   1_554  S
O435        C445   1.278       .  A
O436       Cu635   1.995       .  S
O436        C446   1.275       .  A
O437       Cu443   1.930       .  S
O437        C639   1.274       .  A
O438       Cu443   1.939   1_554  S
O438        C640   1.266       .  A
O439       Cu444   1.974       .  S
O439        C448   1.277       .  A
O440       Cu444   2.018       .  S
O440        C447   1.276       .  A
O441       Cu444   2.027       .  S
O441        C446   1.280       .  A
O442       Cu636   2.051       .  S
O442        C445   1.281   1_556  A
Cu443       O628   1.995       .  S
Cu443      Cu636   2.378       .  S
Cu444       O634   2.050       .  S
Cu444      Cu635   2.378       .  S
C447        C529   1.465       .  S
C447        O629   1.274       .  A
C448        C544   1.423       .  S
C448        O630   1.266       .  A
O449       Cu457   2.039       .  S
O449        C459   1.282       .  A
O450        C460   1.279       .  A
O451       Cu457   1.990       .  S
O452       Cu457   1.963   1_545  S
O453       Cu458   2.003       .  S
O453        C462   1.272       .  A
O454       Cu458   1.986       .  S
O454        C461   1.280       .  A
O455       Cu458   2.041       .  S
O455        C460   1.283       .  A
O456        C459   1.284       .  A
C461        C508   1.466       .  S
C462        C517   1.465       .  S
O463       Cu471   2.040       .  S
O463        C473   1.282       .  A
O464      Cu1239   2.031   1_455  S
O464        C474   1.286       .  A
O465       Cu471   1.976       .  S
O465        C475   1.267       .  A
O466       Cu471   1.936       .  S
O466        C476   1.272       .  A
O467       Cu472   2.027       .  S
O467       C1244   1.277       .  A
O468       Cu472   2.010   1_655  S
O468       C1243   1.284       .  A
O469       Cu472   2.036       .  S
O469        C474   1.277       .  A
O470      Cu1240   2.020       .  S
O470        C473   1.278       .  A
Cu471      O1232   2.031       .  S
Cu471     Cu1240   2.375       .  S
Cu472      O1238   2.020   1_455  S
Cu472     Cu1239   2.375   1_455  S
C475        C553   1.459       .  S
C475       O1236   1.284       .  A
C476        C568   1.458       .  S
C476       O1235   1.277       .  A
O477       Cu485   1.970   1_545  S
O478       Cu485   1.967       .  S
O479       Cu485   2.012       .  S
O479        C489   1.280       .  A
O480        C490   1.279       .  A
O481       Cu486   2.070       .  S
O481        C490   1.284       .  A
O482        C489   1.286       .  A
O483       Cu486   2.031       .  S
O483        C488   1.279       .  A
O484       Cu486   2.023       .  S
O484        C487   1.281       .  A
C487        C520   1.479       .  S
C488        C505   1.470       .  S
O491       Cu499   2.016       .  S
O491        C501   1.281       .  A
O492       Cu691   2.023   1_554  S
O492        C502   1.280       .  A
O493       Cu499   1.992       .  S
O493        C503   1.277       .  A
O494       Cu499   1.951       .  S
O494        C504   1.273       .  A
O495       Cu500   1.963       .  S
O495        C696   1.275       .  A
O496       Cu500   2.000       .  S
O496        C695   1.278   1_554  A
O497       Cu500   2.042       .  S
O497        C502   1.283       .  A
O498       Cu692   2.044       .  S
O498        C501   1.280       .  A
Cu499       O684   2.022       .  S
Cu499      Cu692   2.368       .  S
Cu500       O690   2.045       .  S
Cu500      Cu691   2.369   1_554  S
C503        C532   1.482       .  S
C503        O688   1.278       .  A
C504        C541   1.456       .  S
C504        O687   1.275       .  A
C505        C506   1.405       .  A
C506        C699   1.394       .  A
C506        H511   1.084       .  S
C507        C698   1.394       .  A
C507        C508   1.391       .  A
C507        O512   1.360       .  S
C509        C702   1.403       .  A
C509        H513   1.079   1_565  S
C510        C701   1.403       .  A
C510        O514   1.371   1_565  S
O512        H516   0.990       .  S
O514        H515   0.991       .  S
C517        C522   1.408       .  A
C518        C519   1.401       .  A
C518        H523   1.084       .  S
C519        O524   1.369       .  S
C520        C521   1.407       .  A
C521        C522   1.405       .  A
C521        H525   1.083       .  S
C522        O526   1.370       .  S
O524        H528   0.993       .  S
O526        H527   0.991       .  S
C529        C722   1.400       .  A
C529        C534   1.408       .  A
C530        C721   1.400       .  A
C530       C1299   1.406       .  A
C530        H535   1.084       .  S
C531       C1298   1.406       .  A
C531        C724   1.419       .  A
C531        O536   1.372       .  S
C532        C723   1.419       .  A
C532        C533   1.411       .  A
C533       C1302   1.406       .  A
C533        H537   1.083       .  S
C534       C1301   1.406   1_455  A
C534        O538   1.370       .  S
O536        H540   0.992       .  S
O538        H539   0.992       .  S
C541        C542   1.404       .  A
C541        C738   1.405       .  A
C542        C543   1.388       .  A
C542        H547   1.084       .  S
C543        C544   1.400       .  A
C543        O548   1.372       .  S
C544        C737   1.399       .  A
C545        C736   1.400       .  A
C545        C546   1.387       .  A
C545        H549   1.085       .  S
C546        C733   1.405       .  A
C546        O550   1.375       .  S
O548        H552   0.991       .  S
O550        H551   0.993       .  S
C553       C1322   1.406       .  A
C553        C558   1.399       .  A
C554       C1321   1.406       .  A
C554        H559   1.084       .  S
C555       C1324   1.405       .  A
C555        O560   1.371       .  S
C556       C1323   1.405       .  A
C556        C557   1.405       .  A
C557        H561   1.081       .  S
C558        O562   1.371       .  S
O560        H564   0.991       .  S
O562        H563   0.990       .  S
C565       C1334   1.407       .  A
C565        C570   1.411       .  A
C566       C1333   1.407       .  A
C566        C567   1.398       .  A
C566        H571   1.084       .  S
C567       C1336   1.406       .  A
C567        O572   1.373       .  S
C568       C1335   1.406       .  A
C568        C569   1.405       .  A
C569        C570   1.403       .  A
C569        H573   1.084       .  S
C570        O574   1.371       .  S
O572        H576   0.992       .  S
O574        H575   0.991       .  S
C577        C578   1.403       .  A
C577        C582   1.393       .  A
C577        C623   1.484       .  S
C578        C579   1.409       .  A
C578        H583   1.085       .  S
C579        C580   1.421       .  A
C579        C682   1.497       .  S
C580        C581   1.424       .  A
C580        H584   1.083       .  S
C581        C582   1.409       .  A
C581        C693   1.488       .  S
C582        H585   1.083       .  S
C586        C587   1.408       .  A
C586        C591   1.426       .  A
C586        C694   1.499       .  S
C587        C588   1.411       .  A
C587        H592   1.084       .  S
C588        C589   1.409       .  A
C588        C665   1.485       .  S
C589        C590   1.410       .  A
C589        H593   1.084       .  S
C590        C591   1.416       .  A
C590        C651   1.508       .  S
C591        H594   1.083       .  S
C595        C596   1.397       .  A
C595        C600   1.389       .  A
C595        C638   1.469       .  S
C596        C597   1.411       .  A
C596        H601   1.084       .  S
C597        C598   1.426       .  A
C597        C681   1.511       .  S
C598        C599   1.431       .  A
C598        H602   1.083       .  S
C599        C600   1.406       .  A
C599        C666   1.500       .  S
C600        H603   1.083       .  S
C604        C605   1.425       .  A
C604        C609   1.419       .  A
C604        C652   1.495       .  S
C605        C606   1.407       .  A
C605        H610   1.083       .  S
C606        C607   1.397       .  A
C606        C624   1.487       .  S
C607        C608   1.398       .  A
C607        H611   1.084       .  S
C608        C609   1.408       .  A
C608        C637   1.490       .  S
C609        H612   1.083       .  S
O613       Cu621   1.995       .  S
O613        C623   1.275       .  A
O614      Cu1389   1.997   1_455  S
O614        C624   1.278       .  A
O615       Cu621   1.981       .  S
O615        C625   1.278       .  A
O616       Cu621   2.010       .  S
O616        C626   1.277       .  A
O617       Cu622   1.988       .  S
O617       C1394   1.278       .  A
O618       Cu622   1.996   1_655  S
O618       C1393   1.274       .  A
O619       Cu622   2.048       .  S
O619        C624   1.281       .  A
O620      Cu1390   2.041       .  S
O620        C623   1.283       .  A
Cu621      O1382   1.997       .  S
Cu621     Cu1390   2.371       .  S
Cu622      O1388   2.041   1_455  S
Cu622     Cu1389   2.371   1_455  S
C625        C748   1.466       .  S
C625       O1386   1.274       .  A
C626        C757   1.477       .  S
C626       O1385   1.278       .  A
O627       Cu635   1.980       .  S
O627        C637   1.278       .  A
O628        C638   1.275       .  A
O629       Cu635   1.933       .  S
O630       Cu635   1.941       .  S
O631       Cu636   1.973       .  S
O631        C640   1.277   1_556  A
O632       Cu636   2.018       .  S
O632        C639   1.276       .  A
O633       Cu636   2.027       .  S
O633        C638   1.280       .  A
O634        C637   1.281       .  A
C639        C721   1.464       .  S
C640        C736   1.422       .  S
O641       Cu649   2.040       .  S
O641        C651   1.282       .  A
O642        C652   1.279       .  A
O643       Cu649   1.991       .  S
O644       Cu649   1.963   1_545  S
O645       Cu650   2.004       .  S
O645        C654   1.272       .  A
O646       Cu650   1.986       .  S
O646        C653   1.280       .  A
O647       Cu650   2.041       .  S
O647        C652   1.283       .  A
O648        C651   1.284       .  A
C653        C700   1.466       .  S
C654        C709   1.465       .  S
O655       Cu663   2.040       .  S
O655        C665   1.282       .  A
O656      Cu1431   2.030   1_455  S
O656        C666   1.286       .  A
O657       Cu663   1.976       .  S
O657        C667   1.267       .  A
O658       Cu663   1.937       .  S
O658        C668   1.272       .  A
O659       Cu664   2.027       .  S
O659       C1436   1.278       .  A
O660       Cu664   2.010   1_655  S
O660       C1435   1.284       .  A
O661       Cu664   2.036       .  S
O661        C666   1.277       .  A
O662      Cu1432   2.020       .  S
O662        C665   1.278       .  A
Cu663      O1424   2.030       .  S
Cu663     Cu1432   2.375       .  S
Cu664      O1430   2.020   1_455  S
Cu664     Cu1431   2.375   1_455  S
C667        C745   1.460       .  S
C667       O1428   1.284       .  A
C668        C760   1.458       .  S
C668       O1427   1.278       .  A
O669       Cu677   1.970   1_545  S
O670       Cu677   1.967       .  S
O671       Cu677   2.012       .  S
O671        C681   1.280       .  A
O672        C682   1.279       .  A
O673       Cu678   2.070       .  S
O673        C682   1.285       .  A
O674        C681   1.286       .  A
O675       Cu678   2.030       .  S
O675        C680   1.279       .  A
O676       Cu678   2.023       .  S
O676        C679   1.281       .  A
C679        C712   1.479       .  S
C680        C697   1.470   1_556  S
O683       Cu691   2.017       .  S
O683        C693   1.281       .  A
O684        C694   1.280       .  A
O685       Cu691   1.993       .  S
O685        C695   1.277       .  A
O686       Cu691   1.951       .  S
O686        C696   1.273   1_556  A
O687       Cu692   1.962       .  S
O688       Cu692   2.000       .  S
O689       Cu692   2.042       .  S
O689        C694   1.283       .  A
O690        C693   1.280   1_554  A
C695        C724   1.482       .  S
C696        C733   1.456       .  S
C697        C698   1.405       .  A
C698        H703   1.084       .  S
C699        C700   1.391       .  A
C699        O704   1.360       .  S
C701        H705   1.079   1_565  S
C702        O706   1.371   1_565  S
O704        H708   0.990       .  S
O706        H707   0.991       .  S
C709        C714   1.408       .  A
C710        C711   1.402       .  A
C710        H715   1.083       .  S
C711        O716   1.370       .  S
C712        C713   1.407       .  A
C713        C714   1.405       .  A
C713        H717   1.083       .  S
C714        O718   1.370       .  S
O716        H720   0.993       .  S
O718        H719   0.991       .  S
C721        C726   1.409       .  A
C722       C1491   1.406       .  A
C722        H727   1.084       .  S
C723       C1490   1.406       .  A
C723        O728   1.372       .  S
C724        C725   1.412       .  A
C725       C1494   1.406       .  A
C725        H729   1.083   1_556  S
C726       C1493   1.406   1_455  A
C726        O730   1.370       .  S
O728        H732   0.992       .  S
O730        H731   0.992       .  S
C733        C734   1.404       .  A
C734        C735   1.387   1_554  A
C734        H739   1.084   1_554  S
C735        C736   1.400   1_556  A
C735        O740   1.372       .  S
C737        C738   1.387       .  A
C737        H741   1.085       .  S
C738        O742   1.375       .  S
O740        H744   0.991       .  S
O742        H743   0.993       .  S
C745       C1514   1.406       .  A
C745        C750   1.399       .  A
C746       C1513   1.406       .  A
C746        H751   1.084       .  S
C747       C1516   1.405       .  A
C747        O752   1.371       .  S
C748       C1515   1.405       .  A
C748        C749   1.405       .  A
C749        H753   1.081       .  S
C750        O754   1.371       .  S
O752        H756   0.991       .  S
O754        H755   0.990       .  S
C757       C1526   1.407       .  A
C757        C762   1.411       .  A
C758       C1525   1.407       .  A
C758        C759   1.398       .  A
C758        H763   1.084       .  S
C759       C1528   1.406       .  A
C759        O764   1.373       .  S
C760       C1527   1.406       .  A
C760        C761   1.405       .  A
C761        C762   1.404       .  A
C761        H765   1.084       .  S
C762        O766   1.371       .  S
O764        H768   0.992       .  S
O766        H767   0.991       .  S
C769        C770   1.403       .  A
C769        C774   1.392       .  A
C769        C815   1.484       .  S
C770        C771   1.410       .  A
C770        H775   1.085       .  S
C771        C772   1.420       .  A
C771        C874   1.497       .  S
C772        C773   1.424       .  A
C772        H776   1.083       .  S
C773        C774   1.409       .  A
C773        C885   1.487       .  S
C774        H777   1.083       .  S
C778        C779   1.408       .  A
C778        C783   1.426       .  A
C778        C886   1.499       .  S
C779        C780   1.412       .  A
C779        H784   1.084       .  S
C780        C781   1.408       .  A
C780        C857   1.485       .  S
C781        C782   1.409       .  A
C781        H785   1.084       .  S
C782        C783   1.416       .  A
C782        C843   1.507       .  S
C783        H786   1.083       .  S
C787        C788   1.397       .  A
C787        C792   1.390       .  A
C787        C830   1.469       .  S
C788        C789   1.411       .  A
C788        H793   1.084       .  S
C789        C790   1.426       .  A
C789        C873   1.511       .  S
C790        C791   1.432       .  A
C790        H794   1.083       .  S
C791        C792   1.407       .  A
C791        C858   1.500       .  S
C792        H795   1.083       .  S
C796        C797   1.425       .  A
C796        C801   1.419       .  A
C796        C844   1.495       .  S
C797        C798   1.407       .  A
C797        H802   1.083       .  S
C798        C799   1.397       .  A
C798        C816   1.487       .  S
C799        C800   1.399       .  A
C799        H803   1.084       .  S
C800        C801   1.408       .  A
C800        C829   1.491       .  S
C801        H804   1.083       .  S
O805       Cu813   1.995       .  S
O805        C815   1.275       .  A
O806        C816   1.278       .  A
O807       Cu813   1.980       .  S
O807        C817   1.278       .  A
O808       Cu813   2.008   1_455  S
O808        C818   1.277       .  A
O809       Cu814   1.989       .  S
O810       Cu814   1.997       .  S
O811       Cu814   2.048       .  S
O811        C816   1.281       .  A
O812        C815   1.283       .  A
C817        C940   1.465       .  S
C818        C949   1.477       .  S
O819       Cu827   1.980   1_554  S
O819        C829   1.278       .  A
O820      Cu1019   1.995       .  S
O820        C830   1.275       .  A
O821       Cu827   1.931       .  S
O821       C1023   1.274       .  A
O822       Cu827   1.940   1_554  S
O822       C1024   1.266       .  A
O823       Cu828   1.973       .  S
O823        C832   1.277       .  A
O824       Cu828   2.017       .  S
O824        C831   1.276       .  A
O825       Cu828   2.027       .  S
O825        C830   1.280       .  A
O826      Cu1020   2.051       .  S
O826        C829   1.282   1_556  A
Cu827      O1012   1.995       .  S
Cu827     Cu1020   2.378       .  S
Cu828      O1018   2.051       .  S
Cu828     Cu1019   2.378       .  S
C831        C913   1.464       .  S
C831       O1013   1.274       .  A
C832        C928   1.423       .  S
C832       O1014   1.266       .  A
O833       Cu841   2.039       .  S
O833        C843   1.282       .  A
O834      Cu1225   2.019   1_545  S
O834        C844   1.279       .  A
O835       Cu841   1.990       .  S
O835       C1229   1.272       .  A
O836       Cu841   1.963       .  S
O836       C1230   1.278       .  A
O837       Cu842   2.003       .  S
O837        C846   1.272       .  A
O838       Cu842   1.985   1_565  S
O838        C845   1.280       .  A
O839       Cu842   2.040       .  S
O839        C844   1.283       .  A
O840      Cu1226   2.069       .  S
O840        C843   1.284       .  A
Cu841      O1218   2.019       .  S
Cu841     Cu1226   2.371       .  S
Cu842      O1224   2.069   1_545  S
Cu842     Cu1225   2.371   1_545  S
C845        C892   1.466       .  S
C845       O1219   1.272       .  A
C846        C901   1.465       .  S
C846       O1220   1.278       .  A
O847       Cu855   2.039       .  S
O847        C857   1.282       .  A
O848        C858   1.286       .  A
O849       Cu855   1.975       .  S
O849        C859   1.267       .  A
O850       Cu855   1.936   1_455  S
O850        C860   1.272       .  A
O851       Cu856   2.027       .  S
O852       Cu856   2.010       .  S
O853       Cu856   2.037       .  S
O853        C858   1.277       .  A
O854        C857   1.278       .  A
C859        C937   1.459       .  S
C860        C952   1.457       .  S
O861       Cu869   1.970       .  S
O861       C1255   1.273       .  A
O862       Cu869   1.967       .  S
O862       C1256   1.275       .  A
O863       Cu869   2.012       .  S
O863        C873   1.280       .  A
O864      Cu1253   2.014   1_545  S
O864        C874   1.279       .  A
O865       Cu870   2.070       .  S
O865        C874   1.284       .  A
O866      Cu1254   2.087       .  S
O866        C873   1.286       .  A
O867       Cu870   2.031       .  S
O867        C872   1.279   1_545  A
O868       Cu870   2.023       .  S
O868        C871   1.281       .  A
Cu869      O1248   2.014       .  S
Cu869     Cu1254   2.366       .  S
Cu870      O1250   2.087   1_545  S
Cu870     Cu1253   2.366   1_545  S
C871        C904   1.479       .  S
C871       O1245   1.273       .  A
C872        C889   1.470       .  S
C872       O1246   1.275       .  A
O875       Cu883   2.016       .  S
O875        C885   1.281       .  A
O876      Cu1075   2.023   1_554  S
O876        C886   1.280       .  A
O877       Cu883   1.993       .  S
O877        C887   1.277       .  A
O878       Cu883   1.952       .  S
O878        C888   1.273       .  A
O879       Cu884   1.963       .  S
O879       C1080   1.275       .  A
O880       Cu884   2.001       .  S
O880       C1079   1.278   1_554  A
O881       Cu884   2.043       .  S
O881        C886   1.283       .  A
O882      Cu1076   2.044       .  S
O882        C885   1.280       .  A
Cu883      O1068   2.022       .  S
Cu883     Cu1076   2.368       .  S
Cu884      O1074   2.044       .  S
Cu884     Cu1075   2.368   1_554  S
C887        C916   1.482       .  S
C887       O1072   1.278       .  A
C888        C925   1.456       .  S
C888       O1071   1.275       .  A
C889        C890   1.405       .  A
C889       C1278   1.405       .  A
C890       C1083   1.394       .  A
C890        H895   1.084       .  S
C891       C1082   1.394       .  A
C891        C892   1.391       .  A
C891        O896   1.360       .  S
C892       C1277   1.405       .  A
C893       C1276   1.405       .  A
C893       C1086   1.403       .  A
C893        H897   1.079       .  S
C894       C1273   1.405       .  A
C894       C1085   1.403       .  A
C894        O898   1.371       .  S
O896        H900   0.990       .  S
O898        H899   0.991       .  S
C901       C1286   1.398       .  A
C901        C906   1.408       .  A
C902       C1285   1.398       .  A
C902        C903   1.401       .  A
C902        H907   1.084       .  S
C903       C1288   1.420       .  A
C903        O908   1.369       .  S
C904       C1287   1.420       .  A
C904        C905   1.407       .  A
C905        C906   1.405       .  A
C905        H909   1.083       .  S
C906        O910   1.370       .  S
O908        H912   0.993       .  S
O910        H911   0.991       .  S
C913       C1106   1.400       .  A
C913        C918   1.409       .  A
C914       C1105   1.400       .  A
C914        H919   1.084       .  S
C915       C1108   1.419   1_455  A
C915        O920   1.372       .  S
C916       C1107   1.419   1_655  A
C916        C917   1.412       .  A
C917        H921   1.083       .  S
C918        O922   1.370       .  S
O920        H924   0.992   1_455  S
O922        H923   0.992       .  S
C925        C926   1.404       .  A
C925       C1122   1.405       .  A
C926        C927   1.388       .  A
C926        H931   1.084       .  S
C927        C928   1.400       .  A
C927        O932   1.372       .  S
C928       C1121   1.399       .  A
C929       C1120   1.400       .  A
C929        C930   1.387       .  A
C929        H933   1.085       .  S
C930       C1117   1.405       .  A
C930        O934   1.375       .  S
O932        H936   0.991       .  S
O934        H935   0.993       .  S
C937        C942   1.399       .  A
C938       C1323   1.399       .  A
C938        H943   1.084       .  S
C939       C1322   1.399       .  A
C939        O944   1.371       .  S
C940        C941   1.405   1_545  A
C941       C1326   1.394       .  A
C941        H945   1.081   1_565  S
C942       C1325   1.394       .  A
C942        O946   1.371       .  S
O944        H948   0.991       .  S
O946        H947   0.990       .  S
C949        C954   1.411       .  A
C950        C951   1.398       .  A
C950        H955   1.084       .  S
C951        O956   1.373       .  S
C952        C953   1.405       .  A
C953        C954   1.404       .  A
C953        H957   1.084       .  S
C954        O958   1.371       .  S
O956        H960   0.992       .  S
O958        H959   0.991       .  S
C961        C962   1.403       .  A
C961        C966   1.392       .  A
C961       C1007   1.484       .  S
C962        C963   1.409       .  A
C962        H967   1.085       .  S
C963        C964   1.421       .  A
C963       C1066   1.497       .  S
C964        C965   1.424       .  A
C964        H968   1.083       .  S
C965        C966   1.409       .  A
C965       C1077   1.488       .  S
C966        H969   1.083       .  S
C970        C971   1.407       .  A
C970        C975   1.426       .  A
C970       C1078   1.499       .  S
C971        C972   1.411       .  A
C971        H976   1.084       .  S
C972        C973   1.408       .  A
C972       C1049   1.485       .  S
C973        C974   1.410       .  A
C973        H977   1.084       .  S
C974        C975   1.416       .  A
C974       C1035   1.507       .  S
C975        H978   1.083       .  S
C979        C980   1.397       .  A
C979        C984   1.390       .  A
C979       C1022   1.469       .  S
C980        C981   1.411       .  A
C980        H985   1.084       .  S
C981        C982   1.426       .  A
C981       C1065   1.511       .  S
C982        C983   1.431       .  A
C982        H986   1.083       .  S
C983        C984   1.406       .  A
C983       C1050   1.500       .  S
C984        H987   1.083       .  S
C988        C989   1.425       .  A
C988        C993   1.419       .  A
C988       C1036   1.495       .  S
C989        C990   1.407       .  A
C989        H994   1.083       .  S
C990        C991   1.397       .  A
C990       C1008   1.487       .  S
C991        C992   1.399       .  A
C991        H995   1.084       .  S
C992        C993   1.408       .  A
C992       C1021   1.491       .  S
C993        H996   1.083       .  S
O997      Cu1005   1.994       .  S
O997       C1007   1.275       .  A
O998       C1008   1.278       .  A
O999      Cu1005   1.981       .  S
O999       C1009   1.278       .  A
O1000     Cu1005   2.009   1_455  S
O1000      C1010   1.277       .  A
O1001     Cu1006   1.987       .  S
O1002     Cu1006   1.996       .  S
O1003     Cu1006   2.049       .  S
O1003      C1008   1.281       .  A
O1004      C1007   1.283       .  A
C1009      C1132   1.465       .  S
C1010      C1141   1.477       .  S
O1011     Cu1019   1.980       .  S
O1011      C1021   1.278       .  A
O1012      C1022   1.275       .  A
O1013     Cu1019   1.931       .  S
O1014     Cu1019   1.940       .  S
O1015     Cu1020   1.973       .  S
O1015      C1024   1.277   1_556  A
O1016     Cu1020   2.018       .  S
O1016      C1023   1.276       .  A
O1017     Cu1020   2.027       .  S
O1017      C1022   1.280       .  A
O1018      C1021   1.282       .  A
C1023      C1105   1.465       .  S
C1024      C1120   1.423       .  S
O1025     Cu1033   2.040       .  S
O1025      C1035   1.282       .  A
O1026     Cu1417   2.019   1_545  S
O1026      C1036   1.279       .  A
O1027     Cu1033   1.990       .  S
O1027      C1421   1.272       .  A
O1028     Cu1033   1.963       .  S
O1028      C1422   1.278       .  A
O1029     Cu1034   2.004       .  S
O1029      C1038   1.272       .  A
O1030     Cu1034   1.986   1_565  S
O1030      C1037   1.280       .  A
O1031     Cu1034   2.041       .  S
O1031      C1036   1.283       .  A
O1032     Cu1418   2.070       .  S
O1032      C1035   1.284       .  A
Cu1033     O1410   2.019       .  S
Cu1033    Cu1418   2.371       .  S
Cu1034     O1416   2.071   1_545  S
Cu1034    Cu1417   2.371   1_545  S
C1037      C1084   1.466       .  S
C1037      O1411   1.272       .  A
C1038      C1093   1.465       .  S
C1038      O1412   1.278       .  A
O1039     Cu1047   2.039       .  S
O1039      C1049   1.282       .  A
O1040      C1050   1.286       .  A
O1041     Cu1047   1.975       .  S
O1041      C1051   1.267       .  A
O1042     Cu1047   1.936   1_455  S
O1042      C1052   1.272       .  A
O1043     Cu1048   2.027       .  S
O1044     Cu1048   2.010       .  S
O1045     Cu1048   2.035       .  S
O1045      C1050   1.277       .  A
O1046      C1049   1.278       .  A
C1051      C1129   1.459       .  S
C1052      C1144   1.457       .  S
O1053     Cu1061   1.969       .  S
O1053      C1447   1.273       .  A
O1054     Cu1061   1.967       .  S
O1054      C1448   1.275       .  A
O1055     Cu1061   2.012       .  S
O1055      C1065   1.280       .  A
O1056     Cu1445   2.014   1_545  S
O1056      C1066   1.279       .  A
O1057     Cu1062   2.070       .  S
O1057      C1066   1.284       .  A
O1058     Cu1446   2.087       .  S
O1058      C1065   1.286       .  A
O1059     Cu1062   2.030       .  S
O1059      C1064   1.279   1_545  A
O1060     Cu1062   2.023       .  S
O1060      C1063   1.281       .  A
Cu1061     O1440   2.014       .  S
Cu1061    Cu1446   2.366       .  S
Cu1062     O1442   2.087   1_545  S
Cu1062    Cu1445   2.366   1_545  S
C1063      C1096   1.479       .  S
C1063      O1437   1.273       .  A
C1064      C1081   1.470   1_556  S
C1064      O1438   1.275       .  A
O1067     Cu1075   2.016       .  S
O1067      C1077   1.281       .  A
O1068      C1078   1.280       .  A
O1069     Cu1075   1.994       .  S
O1069      C1079   1.278       .  A
O1070     Cu1075   1.952       .  S
O1070      C1080   1.273   1_556  A
O1071     Cu1076   1.962       .  S
O1072     Cu1076   2.001       .  S
O1073     Cu1076   2.042       .  S
O1073      C1078   1.283       .  A
O1074      C1077   1.280   1_554  A
C1079      C1108   1.483       .  S
C1080      C1117   1.456       .  S
C1081      C1082   1.405       .  A
C1081      C1470   1.404       .  A
C1082      H1087   1.084       .  S
C1083      C1084   1.391       .  A
C1083      O1088   1.360       .  S
C1084      C1469   1.405       .  A
C1085      C1468   1.405       .  A
C1085      H1089   1.079       .  S
C1086      C1465   1.404       .  A
C1086      O1090   1.371       .  S
O1088      H1092   0.990       .  S
O1090      H1091   0.991       .  S
C1093      C1478   1.398       .  A
C1093      C1098   1.408       .  A
C1094      C1477   1.398       .  A
C1094      C1095   1.402       .  A
C1094      H1099   1.083       .  S
C1095      C1480   1.419       .  A
C1095      O1100   1.370       .  S
C1096      C1479   1.419       .  A
C1096      C1097   1.407       .  A
C1097      C1098   1.405       .  A
C1097      H1101   1.083       .  S
C1098      O1102   1.370       .  S
O1100      H1104   0.993       .  S
O1102      H1103   0.991       .  S
C1105      C1110   1.409       .  A
C1106      H1111   1.084       .  S
C1107      O1112   1.372       .  S
C1108      C1109   1.412       .  A
C1109      H1113   1.083   1_556  S
C1110      O1114   1.370       .  S
O1112      H1116   0.992   1_455  S
O1114      H1115   0.992       .  S
C1117      C1118   1.404       .  A
C1118      C1119   1.388   1_554  A
C1118      H1123   1.084   1_554  S
C1119      C1120   1.400   1_556  A
C1119      O1124   1.372       .  S
C1121      C1122   1.387       .  A
C1121      H1125   1.085       .  S
C1122      O1126   1.375       .  S
O1124      H1128   0.991       .  S
O1126      H1127   0.993       .  S
C1129      C1134   1.399       .  A
C1130      C1515   1.399       .  A
C1130      H1135   1.084       .  S
C1131      C1514   1.399       .  A
C1131      O1136   1.371       .  S
C1132      C1133   1.405   1_545  A
C1133      C1518   1.394       .  A
C1133      H1137   1.081   1_565  S
C1134      C1517   1.394       .  A
C1134      O1138   1.371       .  S
O1136      H1140   0.991       .  S
O1138      H1139   0.990       .  S
C1141      C1146   1.411       .  A
C1142      C1143   1.398       .  A
C1142      H1147   1.084       .  S
C1143      O1148   1.373       .  S
C1144      C1145   1.405       .  A
C1145      C1146   1.404       .  A
C1145      H1149   1.084       .  S
C1146      O1150   1.371       .  S
O1148      H1152   0.992       .  S
O1150      H1151   0.991       .  S
C1153      C1154   1.403       .  A
C1153      C1158   1.393       .  A
C1153      C1199   1.484       .  S
C1154      C1155   1.410       .  A
C1154      H1159   1.085       .  S
C1155      C1156   1.420       .  A
C1155      C1258   1.496       .  S
C1156      C1157   1.424       .  A
C1156      H1160   1.083       .  S
C1157      C1158   1.409       .  A
C1157      C1269   1.487       .  S
C1158      H1161   1.083       .  S
C1162      C1163   1.408       .  A
C1162      C1167   1.425       .  A
C1162      C1270   1.499       .  S
C1163      C1164   1.412       .  A
C1163      H1168   1.084       .  S
C1164      C1165   1.408       .  A
C1164      C1241   1.485       .  S
C1165      C1166   1.410       .  A
C1165      H1169   1.084       .  S
C1166      C1167   1.416       .  A
C1166      C1227   1.507       .  S
C1167      H1170   1.083       .  S
C1171      C1172   1.397       .  A
C1171      C1176   1.390       .  A
C1171      C1214   1.469       .  S
C1172      C1173   1.411       .  A
C1172      H1177   1.084       .  S
C1173      C1174   1.427       .  A
C1173      C1257   1.511       .  S
C1174      C1175   1.432       .  A
C1174      H1178   1.083       .  S
C1175      C1176   1.407       .  A
C1175      C1242   1.500       .  S
C1176      H1179   1.083       .  S
C1180      C1181   1.425       .  A
C1180      C1185   1.419       .  A
C1180      C1228   1.495       .  S
C1181      C1182   1.407       .  A
C1181      H1186   1.083       .  S
C1182      C1183   1.397       .  A
C1182      C1200   1.487       .  S
C1183      C1184   1.399       .  A
C1183      H1187   1.084       .  S
C1184      C1185   1.408       .  A
C1184      C1213   1.491       .  S
C1185      H1188   1.083       .  S
O1189     Cu1197   1.995       .  S
O1189      C1199   1.275       .  A
O1190      C1200   1.278       .  A
O1191     Cu1197   1.980       .  S
O1191      C1201   1.278       .  A
O1192     Cu1197   2.008   1_455  S
O1192      C1202   1.277       .  A
O1193     Cu1198   1.989       .  S
O1194     Cu1198   1.997       .  S
O1195     Cu1198   2.048       .  S
O1195      C1200   1.281       .  A
O1196      C1199   1.283       .  A
C1201      C1324   1.465       .  S
C1202      C1333   1.477       .  S
O1203     Cu1211   1.980   1_554  S
O1203      C1213   1.278       .  A
O1204     Cu1403   1.995       .  S
O1204      C1214   1.275       .  A
O1205     Cu1211   1.930       .  S
O1205      C1407   1.274       .  A
O1206     Cu1211   1.939   1_554  S
O1206      C1408   1.266       .  A
O1207     Cu1212   1.974       .  S
O1207      C1216   1.277       .  A
O1208     Cu1212   2.018       .  S
O1208      C1215   1.276       .  A
O1209     Cu1212   2.027       .  S
O1209      C1214   1.280       .  A
O1210     Cu1404   2.051       .  S
O1210      C1213   1.281   1_556  A
Cu1211     O1396   1.995       .  S
Cu1211    Cu1404   2.378       .  S
Cu1212     O1402   2.050       .  S
Cu1212    Cu1403   2.378       .  S
C1215      C1297   1.465       .  S
C1215      O1397   1.274       .  A
C1216      C1312   1.423       .  S
C1216      O1398   1.266       .  A
O1217     Cu1225   2.039       .  S
O1217      C1227   1.282       .  A
O1218      C1228   1.279       .  A
O1219     Cu1225   1.990       .  S
O1220     Cu1225   1.963   1_545  S
O1221     Cu1226   2.003       .  S
O1221      C1230   1.272       .  A
O1222     Cu1226   1.986       .  S
O1222      C1229   1.280       .  A
O1223     Cu1226   2.040       .  S
O1223      C1228   1.283       .  A
O1224      C1227   1.284       .  A
C1229      C1276   1.466       .  S
C1230      C1285   1.465       .  S
O1231     Cu1239   2.040       .  S
O1231      C1241   1.282       .  A
O1232      C1242   1.286       .  A
O1233     Cu1239   1.976       .  S
O1233      C1243   1.267       .  A
O1234     Cu1239   1.936   1_455  S
O1234      C1244   1.272       .  A
O1235     Cu1240   2.027       .  S
O1236     Cu1240   2.010       .  S
O1237     Cu1240   2.036       .  S
O1237      C1242   1.277       .  A
O1238      C1241   1.278       .  A
C1243      C1321   1.459       .  S
C1244      C1336   1.458       .  S
O1245     Cu1253   1.970   1_545  S
O1246     Cu1253   1.967       .  S
O1247     Cu1253   2.012       .  S
O1247      C1257   1.280       .  A
O1248      C1258   1.279       .  A
O1249     Cu1254   2.070       .  S
O1249      C1258   1.284       .  A
O1250      C1257   1.286       .  A
O1251     Cu1254   2.031       .  S
O1251      C1256   1.279       .  A
O1252     Cu1254   2.023       .  S
O1252      C1255   1.281       .  A
C1255      C1288   1.479       .  S
C1256      C1273   1.470       .  S
O1259     Cu1267   2.016       .  S
O1259      C1269   1.281       .  A
O1260     Cu1459   2.023   1_554  S
O1260      C1270   1.280       .  A
O1261     Cu1267   1.992       .  S
O1261      C1271   1.277       .  A
O1262     Cu1267   1.951       .  S
O1262      C1272   1.273       .  A
O1263     Cu1268   1.963       .  S
O1263      C1464   1.275       .  A
O1264     Cu1268   2.000       .  S
O1264      C1463   1.278   1_554  A
O1265     Cu1268   2.042       .  S
O1265      C1270   1.283       .  A
O1266     Cu1460   2.044       .  S
O1266      C1269   1.280       .  A
Cu1267     O1452   2.022       .  S
Cu1267    Cu1460   2.368       .  S
Cu1268     O1458   2.044       .  S
Cu1268    Cu1459   2.369   1_554  S
C1271      C1300   1.482       .  S
C1271      O1456   1.278       .  A
C1272      C1309   1.456       .  S
C1272      O1455   1.275       .  A
C1273      C1274   1.405       .  A
C1274      C1467   1.394       .  A
C1274      H1279   1.084       .  S
C1275      C1466   1.394       .  A
C1275      C1276   1.391       .  A
C1275      O1280   1.360       .  S
C1277      C1470   1.403       .  A
C1277      H1281   1.079   1_565  S
C1278      C1469   1.403       .  A
C1278      O1282   1.371   1_565  S
O1280      H1284   0.990       .  S
O1282      H1283   0.991       .  S
C1285      C1290   1.408       .  A
C1286      C1287   1.401       .  A
C1286      H1291   1.084       .  S
C1287      O1292   1.369       .  S
C1288      C1289   1.407       .  A
C1289      C1290   1.405       .  A
C1289      H1293   1.083       .  S
C1290      O1294   1.370       .  S
O1292      H1296   0.993       .  S
O1294      H1295   0.991       .  S
C1297      C1490   1.400       .  A
C1297      C1302   1.408       .  A
C1298      C1489   1.400       .  A
C1298      H1303   1.084       .  S
C1299      C1492   1.419   1_455  A
C1299      O1304   1.372       .  S
C1300      C1491   1.419   1_655  A
C1300      C1301   1.411       .  A
C1301      H1305   1.083       .  S
C1302      O1306   1.370       .  S
O1304      H1308   0.992   1_455  S
O1306      H1307   0.992       .  S
C1309      C1310   1.404       .  A
C1309      C1506   1.405       .  A
C1310      C1311   1.388       .  A
C1310      H1315   1.084       .  S
C1311      C1312   1.400       .  A
C1311      O1316   1.372       .  S
C1312      C1505   1.399       .  A
C1313      C1504   1.400       .  A
C1313      C1314   1.387       .  A
C1313      H1317   1.085       .  S
C1314      C1501   1.405       .  A
C1314      O1318   1.375       .  S
O1316      H1320   0.991       .  S
O1318      H1319   0.993       .  S
C1321      C1326   1.399       .  A
C1322      H1327   1.084       .  S
C1323      O1328   1.371       .  S
C1324      C1325   1.405       .  A
C1325      H1329   1.081       .  S
C1326      O1330   1.371       .  S
O1328      H1332   0.991       .  S
O1330      H1331   0.990       .  S
C1333      C1338   1.411       .  A
C1334      C1335   1.398       .  A
C1334      H1339   1.084       .  S
C1335      O1340   1.373       .  S
C1336      C1337   1.405       .  A
C1337      C1338   1.403       .  A
C1337      H1341   1.084       .  S
C1338      O1342   1.371       .  S
O1340      H1344   0.992       .  S
O1342      H1343   0.991       .  S
C1345      C1346   1.403       .  A
C1345      C1350   1.393       .  A
C1345      C1391   1.484       .  S
C1346      C1347   1.409       .  A
C1346      H1351   1.085       .  S
C1347      C1348   1.421       .  A
C1347      C1450   1.497       .  S
C1348      C1349   1.424       .  A
C1348      H1352   1.083       .  S
C1349      C1350   1.409       .  A
C1349      C1461   1.488       .  S
C1350      H1353   1.083       .  S
C1354      C1355   1.408       .  A
C1354      C1359   1.426       .  A
C1354      C1462   1.499       .  S
C1355      C1356   1.411       .  A
C1355      H1360   1.084       .  S
C1356      C1357   1.409       .  A
C1356      C1433   1.485       .  S
C1357      C1358   1.410       .  A
C1357      H1361   1.084       .  S
C1358      C1359   1.416       .  A
C1358      C1419   1.508       .  S
C1359      H1362   1.083       .  S
C1363      C1364   1.397       .  A
C1363      C1368   1.389       .  A
C1363      C1406   1.469       .  S
C1364      C1365   1.411       .  A
C1364      H1369   1.084       .  S
C1365      C1366   1.426       .  A
C1365      C1449   1.511       .  S
C1366      C1367   1.431       .  A
C1366      H1370   1.083       .  S
C1367      C1368   1.406       .  A
C1367      C1434   1.500       .  S
C1368      H1371   1.083       .  S
C1372      C1373   1.425       .  A
C1372      C1377   1.419       .  A
C1372      C1420   1.495       .  S
C1373      C1374   1.407       .  A
C1373      H1378   1.083       .  S
C1374      C1375   1.397       .  A
C1374      C1392   1.487       .  S
C1375      C1376   1.398       .  A
C1375      H1379   1.084       .  S
C1376      C1377   1.408       .  A
C1376      C1405   1.490       .  S
C1377      H1380   1.083       .  S
O1381     Cu1389   1.995       .  S
O1381      C1391   1.275       .  A
O1382      C1392   1.278       .  A
O1383     Cu1389   1.981       .  S
O1383      C1393   1.278       .  A
O1384     Cu1389   2.010   1_455  S
O1384      C1394   1.277       .  A
O1385     Cu1390   1.988       .  S
O1386     Cu1390   1.996       .  S
O1387     Cu1390   2.048       .  S
O1387      C1392   1.281       .  A
O1388      C1391   1.283       .  A
C1393      C1516   1.466       .  S
C1394      C1525   1.477       .  S
O1395     Cu1403   1.980       .  S
O1395      C1405   1.278       .  A
O1396      C1406   1.275       .  A
O1397     Cu1403   1.933       .  S
O1398     Cu1403   1.941       .  S
O1399     Cu1404   1.973       .  S
O1399      C1408   1.277   1_556  A
O1400     Cu1404   2.018       .  S
O1400      C1407   1.276       .  A
O1401     Cu1404   2.027       .  S
O1401      C1406   1.280       .  A
O1402      C1405   1.281       .  A
C1407      C1489   1.464       .  S
C1408      C1504   1.422       .  S
O1409     Cu1417   2.040       .  S
O1409      C1419   1.282       .  A
O1410      C1420   1.279       .  A
O1411     Cu1417   1.991       .  S
O1412     Cu1417   1.963   1_545  S
O1413     Cu1418   2.004       .  S
O1413      C1422   1.272       .  A
O1414     Cu1418   1.986       .  S
O1414      C1421   1.280       .  A
O1415     Cu1418   2.041       .  S
O1415      C1420   1.283       .  A
O1416      C1419   1.284       .  A
C1421      C1468   1.466       .  S
C1422      C1477   1.465       .  S
O1423     Cu1431   2.040       .  S
O1423      C1433   1.282       .  A
O1424      C1434   1.286       .  A
O1425     Cu1431   1.976       .  S
O1425      C1435   1.267       .  A
O1426     Cu1431   1.937   1_455  S
O1426      C1436   1.272       .  A
O1427     Cu1432   2.027       .  S
O1428     Cu1432   2.010       .  S
O1429     Cu1432   2.036       .  S
O1429      C1434   1.277       .  A
O1430      C1433   1.278       .  A
C1435      C1513   1.460       .  S
C1436      C1528   1.458       .  S
O1437     Cu1445   1.970   1_545  S
O1438     Cu1445   1.967       .  S
O1439     Cu1445   2.012       .  S
O1439      C1449   1.280       .  A
O1440      C1450   1.279       .  A
O1441     Cu1446   2.070       .  S
O1441      C1450   1.285       .  A
O1442      C1449   1.286       .  A
O1443     Cu1446   2.030       .  S
O1443      C1448   1.279       .  A
O1444     Cu1446   2.023       .  S
O1444      C1447   1.281       .  A
C1447      C1480   1.479       .  S
C1448      C1465   1.470   1_556  S
O1451     Cu1459   2.017       .  S
O1451      C1461   1.281       .  A
O1452      C1462   1.280       .  A
O1453     Cu1459   1.993       .  S
O1453      C1463   1.277       .  A
O1454     Cu1459   1.951       .  S
O1454      C1464   1.273   1_556  A
O1455     Cu1460   1.962       .  S
O1456     Cu1460   2.000       .  S
O1457     Cu1460   2.042       .  S
O1457      C1462   1.283       .  A
O1458      C1461   1.280   1_554  A
C1463      C1492   1.482       .  S
C1464      C1501   1.456       .  S
C1465      C1466   1.405       .  A
C1466      H1471   1.084       .  S
C1467      C1468   1.391       .  A
C1467      O1472   1.360       .  S
C1469      H1473   1.079   1_565  S
C1470      O1474   1.371   1_565  S
O1472      H1476   0.990       .  S
O1474      H1475   0.991       .  S
C1477      C1482   1.408       .  A
C1478      C1479   1.402       .  A
C1478      H1483   1.083       .  S
C1479      O1484   1.369       .  S
C1480      C1481   1.407       .  A
C1481      C1482   1.405       .  A
C1481      H1485   1.083       .  S
C1482      O1486   1.370       .  S
O1484      H1488   0.993       .  S
O1486      H1487   0.991       .  S
C1489      C1494   1.409       .  A
C1490      H1495   1.084       .  S
C1491      O1496   1.372       .  S
C1492      C1493   1.412       .  A
C1493      H1497   1.083   1_556  S
C1494      O1498   1.370       .  S
O1496      H1500   0.992   1_455  S
O1498      H1499   0.991       .  S
C1501      C1502   1.404       .  A
C1502      C1503   1.387   1_554  A
C1502      H1507   1.084   1_554  S
C1503      C1504   1.400   1_556  A
C1503      O1508   1.372       .  S
C1505      C1506   1.387       .  A
C1505      H1509   1.085       .  S
C1506      O1510   1.375       .  S
O1508      H1512   0.991       .  S
O1510      H1511   0.993       .  S
C1513      C1518   1.399       .  A
C1514      H1519   1.084       .  S
C1515      O1520   1.371       .  S
C1516      C1517   1.405       .  A
C1517      H1521   1.081       .  S
C1518      O1522   1.371       .  S
O1520      H1524   0.991       .  S
O1522      H1523   0.990       .  S
C1525      C1530   1.411       .  A
C1526      C1527   1.398       .  A
C1526      H1531   1.084       .  S
C1527      O1532   1.373       .  S
C1528      C1529   1.405       .  A
C1529      C1530   1.404       .  A
C1529      H1533   1.084       .  S
C1530      O1534   1.371       .  S
O1532      H1536   0.992       .  S
O1534      H1535   0.991       .  S
