geometry optimzed in LAMMPS
_audit_creation_date              2020-12-01 
_audit_creation_method            'lammps2cif' 
_symmetry_space_group_name_H-M    'P1' 
_symmetry_Int_Tables_number       1 
_symmetry_cell_setting            triclinic 
loop_ 
_symmetry_equiv_pos_as_xyz 
  x,y,z 
_cell_length_a                    85.14914651 
_cell_length_b                    85.1841886127904 
_cell_length_c                    85.21591376200776 
_cell_angle_alpha                 89.91715386822294 
_cell_angle_beta                  90.00667990424066 
_cell_angle_gamma                 89.99645780442842 
loop_ 
_atom_site_label 
_atom_site_type_symbol 
_atom_site_fract_x 
_atom_site_fract_y 
_atom_site_fract_z 
_atom_site_charge 
N1          N  0.39234005  0.15725694  0.80463189    -0.25500
N2          N  0.39704102  0.14266754  0.80692698    -0.33400
C3          C  0.39525943  0.13458318  0.79349267     0.02800
C4          C  0.38927716  0.14467804  0.78221236     0.08800
C5          C  0.38760623  0.15897066  0.78967858    -0.04300
H6          H  0.39824348  0.12234031  0.79199817     0.09500
H7          H  0.38304412  0.16973556  0.78471153     0.10700
Cu8        Cu  0.40583342  0.13502592  0.82836316     0.44200
Cu9        Cu  0.39246767  0.17379948  0.82218780     0.42000
Cu10       Cu  0.40603775  0.16291766  0.86126017     0.43900
N11         N  0.41443897  0.13009072  0.85066202    -0.32900
N12         N  0.41449715  0.14001151  0.86258997    -0.27200
C13         C  0.42063561  0.13275280  0.87523834    -0.03300
C14         C  0.42466665  0.11752205  0.87108839     0.08900
C15         C  0.42051306  0.11632626  0.85540726     0.02700
H16         H  0.42202615  0.13821307  0.88659803     0.10400
H17         H  0.42132335  0.10602970  0.84804314     0.09500
N18         N  0.39802570  0.18522580  0.85525438    -0.34400
N19         N  0.39356851  0.18898811  0.84089632    -0.26600
C20         C  0.38975400  0.20422793  0.84040310    -0.01800
C21         C  0.39162018  0.21056673  0.85524794     0.06800
C22         C  0.39692585  0.19807510  0.86438234     0.04900
H23         H  0.38616992  0.21015532  0.82978962     0.10000
H24         H  0.39961191  0.19814997  0.87676817     0.08800
N25         N  0.57019584  0.87506013  0.80917401    -0.25500
N26         N  0.56328181  0.88885288  0.81072589    -0.33400
C27         C  0.56544684  0.89720757  0.79747584     0.02800
C28         C  0.57404081  0.88815684  0.78702971     0.08800
C29         C  0.57686715  0.87421098  0.79491477    -0.04300
H30         H  0.56062463  0.90876631  0.79541180     0.09500
H31         H  0.58322794  0.86410778  0.79060604     0.10700
Cu32       Cu  0.55035983  0.89498877  0.83046885     0.44200
Cu33       Cu  0.56952473  0.85765897  0.82612605     0.42000
Cu34       Cu  0.54631315  0.86502928  0.86092910     0.43900
N35         N  0.53743599  0.89790924  0.85095064    -0.32900
N36         N  0.53607314  0.88716580  0.86209016    -0.27200
C37         C  0.52708177  0.89295174  0.87372956    -0.03300
C38         C  0.52246432  0.90802158  0.86967417     0.08900
C39         C  0.52926645  0.91073634  0.85515392     0.02700
H40         H  0.52398251  0.88656695  0.88424815     0.10400
H41         H  0.52856657  0.92136368  0.84823645     0.09500
N42         N  0.55773509  0.84390411  0.85654223    -0.34400
N43         N  0.56630818  0.84137269  0.84387706    -0.26600
C44         C  0.57202447  0.82668388  0.84436239    -0.01800
C45         C  0.56676291  0.81947099  0.85797226     0.06800
C46         C  0.55774348  0.83082047  0.86542291     0.04900
H47         H  0.57959931  0.82173884  0.83547178     0.10000
H48         H  0.55137961  0.82962059  0.87633046     0.08800
N49         N  0.45539754  0.00473650  0.92339083    -0.01700
C50         C  0.44449849  0.01361893  0.91574088     0.00900
C51         C  0.43688550  0.00487880  0.90441478    -0.22000
C52         C  0.44338298  0.99022184  0.90479609    -0.22200
C53         C  0.45479558  0.99038878  0.91630648     0.00800
H54         H  0.42852924  0.00909971  0.89581644     0.14500
H55         H  0.44123451  0.98094043  0.89639915     0.14600
N56         N  0.58112761  0.14877398  0.15070469    -0.25500
N57         N  0.57310804  0.13555145  0.14944754    -0.33400
C58         C  0.57394157  0.12770252  0.16315296     0.02800
C59         C  0.58300548  0.13638675  0.17349736     0.08800
C60         C  0.58733064  0.14967361  0.16517835    -0.04300
H61         H  0.56860821  0.11640410  0.16529899     0.09500
H62         H  0.59430687  0.15939241  0.16937133     0.10700
Cu63       Cu  0.56167849  0.12875523  0.12900780     0.44200
Cu64       Cu  0.58303261  0.16528818  0.13292254     0.42000
Cu65       Cu  0.56250278  0.15663536  0.09674288     0.43900
N66         N  0.55169014  0.12451128  0.10716282    -0.32900
N67         N  0.55213862  0.13453015  0.09530882    -0.27200
C68         C  0.54502450  0.12798509  0.08280003    -0.03300
C69         C  0.53974330  0.11314416  0.08699208     0.08900
C70         C  0.54423292  0.11139331  0.10254167     0.02700
H71         H  0.54375023  0.13367273  0.07152495     0.10400
H72         H  0.54262582  0.10114880  0.10987189     0.09500
N73         N  0.57348354  0.17800017  0.10130356    -0.34400
N74         N  0.58141012  0.18091414  0.11432317    -0.26600
C75         C  0.58706523  0.19564593  0.11372813    -0.01800
C76         C  0.58234173  0.20242599  0.09973502     0.06800
C77         C  0.57371361  0.19091187  0.09216650     0.04900
H78         H  0.59367504  0.20119068  0.12304015     0.10000
H79         H  0.56802301  0.19184127  0.08085443     0.08800
N80         N  0.38666782  0.87152636  0.14780278    -0.25500
N81         N  0.38965022  0.88625595  0.14401873    -0.33400
C82         C  0.38799140  0.89528417  0.15684041     0.02800
C83         C  0.38366250  0.88572449  0.16927356     0.08800
C84         C  0.38290010  0.87073984  0.16307852    -0.04300
H85         H  0.38983841  0.90783782  0.15706792     0.09500
H86         H  0.38028382  0.85997070  0.16929073     0.10700
Cu87       Cu  0.39673629  0.89287556  0.12177862     0.44200
Cu88       Cu  0.38883719  0.85319722  0.13220863     0.42000
Cu89       Cu  0.40535975  0.86155832  0.09379967     0.43900
N90         N  0.40678419  0.89641037  0.09997737    -0.32900
N91         N  0.41069908  0.88509771  0.09009821    -0.27200
C92         C  0.41853662  0.89146140  0.07791991    -0.03300
C93         C  0.41931290  0.90752763  0.08019894     0.08900
C94         C  0.41175242  0.91023315  0.09425629     0.02700
H95         H  0.42342824  0.88487979  0.06823495     0.10400
H96         H  0.41060769  0.92135275  0.10027066     0.09500
N97         N  0.39767526  0.83947859  0.10084250    -0.34400
N98         N  0.39176717  0.83659694  0.11489131    -0.26600
C99         C  0.38733273  0.82151036  0.11570290    -0.01800
C100        C  0.39045097  0.81446249  0.10142485     0.06800
C101        C  0.39708763  0.82621917  0.09229281     0.04900
H102        H  0.38207932  0.81617425  0.12595665     0.10000
H103        H  0.40066789  0.82540086  0.08014524     0.08800
N104        N  0.49092569  0.00610884  0.03588428    -0.01700
C105        C  0.50220956  0.01430106  0.04375363     0.00900
C106        C  0.50720610  0.00608161  0.05682551    -0.22000
C107        C  0.49879127  0.99247048  0.05726018    -0.22200
C108        C  0.48888558  0.99270323  0.04445344     0.00800
H109        H  0.51527371  0.01012212  0.06576923     0.14500
H110        H  0.49895278  0.98385893  0.06661455     0.14600
N111        N  0.62375004  0.91790981  0.65566343    -0.25500
N112        N  0.61000049  0.92461360  0.65315531    -0.33400
C113        C  0.60085447  0.92252727  0.66583293     0.02800
C114        C  0.60923738  0.91409683  0.67695416     0.08800
C115        C  0.62375574  0.91138081  0.67006177    -0.04300
H116        H  0.58912920  0.92723681  0.66700746     0.09500
H117        H  0.63361084  0.90515020  0.67509281     0.10700
Cu118      Cu  0.60457809  0.93673137  0.63276871     0.44200
Cu119      Cu  0.64176629  0.91879735  0.63934452     0.42000
Cu120      Cu  0.63444781  0.94067093  0.60271238     0.43900
N121        N  0.60091658  0.94805777  0.61153960    -0.32900
N122        N  0.61163107  0.94948738  0.60040776    -0.27200
C123        C  0.60509251  0.95686029  0.58799884    -0.03300
C124        C  0.58951070  0.96026494  0.59152545     0.08900
C125        C  0.58737574  0.95446876  0.60657946     0.02700
H126        H  0.61123007  0.95946933  0.57721129     0.10400
H127        H  0.57660483  0.95435795  0.61327852     0.09500
N128        N  0.65589452  0.93026185  0.60867777    -0.34400
N129        N  0.65826954  0.92229093  0.62180792    -0.26600
C130        C  0.67315538  0.91709872  0.62211272    -0.01800
C131        C  0.68065724  0.92197385  0.60855737     0.06800
C132        C  0.66934079  0.93034740  0.60031569     0.04900
H133        H  0.67820388  0.91048761  0.63171348     0.10000
H134        H  0.67069222  0.93592051  0.58898766     0.08800
N135        N  0.35087168  0.11040763  0.64879397    -0.25500
N136        N  0.36510888  0.10467616  0.64651790    -0.33400
C137        C  0.37382824  0.10740092  0.65944104     0.02800
C138        C  0.36461267  0.11531504  0.67032176     0.08800
C139        C  0.35014961  0.11698462  0.66309096    -0.04300
H140        H  0.38594831  0.10389296  0.66077958     0.09500
H141        H  0.33967432  0.12219964  0.66800810     0.10700
Cu142      Cu  0.37149768  0.09310063  0.62591801     0.44200
Cu143      Cu  0.33278750  0.10883418  0.63263924     0.42000
Cu144      Cu  0.34110083  0.09061414  0.59547951     0.43900
N145        N  0.37417378  0.08126621  0.60464959    -0.32900
N146        N  0.36318748  0.08024971  0.59372236    -0.27200
C147        C  0.36857615  0.07131543  0.58185385    -0.03300
C148        C  0.38371081  0.06641218  0.58541649     0.08900
C149        C  0.38682591  0.07305182  0.59996817     0.02700
H150        H  0.36176360  0.06829883  0.57159372     0.10400
H151        H  0.39752940  0.07207110  0.60671615     0.09500
N152        N  0.31975278  0.10133743  0.60069230    -0.34400
N153        N  0.31664861  0.10760450  0.61450783    -0.26600
C154        C  0.30199938  0.11347228  0.61436030    -0.01800
C155        C  0.29546644  0.11097310  0.59964116     0.06800
C156        C  0.30716159  0.10319561  0.59131347     0.04900
H157        H  0.29657817  0.11908856  0.62435018     0.10000
H158        H  0.30677558  0.09945632  0.57920467     0.08800
N159        N  0.48010013  0.99978994  0.53456121    -0.01700
C160        C  0.49070030  0.99175902  0.54349704     0.00900
C161        C  0.48371015  0.98603486  0.55694375    -0.22000
C162        C  0.46835386  0.99061140  0.55649236    -0.22200
C163        C  0.46636927  0.99903692  0.54276878     0.00800
H164        H  0.48943254  0.97985953  0.56647105     0.14500
H165        H  0.45979475  0.98891688  0.56573189     0.14600
N166        N  0.34790167  0.92007391  0.30327489    -0.25500
N167        N  0.36235552  0.92528884  0.30537862    -0.33400
C168        C  0.37072410  0.92281778  0.29222529     0.02800
C169        C  0.36102350  0.91577220  0.28125378     0.08800
C170        C  0.34664565  0.91418922  0.28870598    -0.04300
H171        H  0.38279005  0.92640415  0.29061048     0.09500
H172        H  0.33600134  0.90922312  0.28389686     0.10700
Cu173      Cu  0.36958959  0.93635550  0.32572206     0.44200
Cu174      Cu  0.33037061  0.92192864  0.32005151     0.42000
Cu175      Cu  0.33966219  0.94363242  0.35545406     0.43900
N176        N  0.37382328  0.94779746  0.34670783    -0.32900
N177        N  0.36306103  0.95057132  0.35753719    -0.27200
C178        C  0.36983660  0.95829507  0.36955089    -0.03300
C179        C  0.38560504  0.96053739  0.36607307     0.08900
C180        C  0.38765256  0.95367812  0.35149059     0.02700
H181        H  0.36365382  0.96222424  0.37989964     0.10400
H182        H  0.39842648  0.95285550  0.34484717     0.09500
N183        N  0.31761626  0.93403472  0.35079879    -0.34400
N184        N  0.31441033  0.92591187  0.33799454    -0.26600
C185        C  0.29949170  0.92079857  0.33871032    -0.01800
C186        C  0.29282548  0.92595401  0.35263877     0.06800
C187        C  0.30474189  0.93434749  0.35997778     0.04900
H188        H  0.29408503  0.91351354  0.32985354     0.10000
H189        H  0.30415545  0.94031069  0.37114487     0.08800
N190        N  0.62647032  0.11079554  0.30824479    -0.25500
N191        N  0.61437331  0.10115371  0.30939973    -0.33400
C192        C  0.60643601  0.10119801  0.29575411     0.02800
C193        C  0.61389641  0.11134416  0.28542572     0.08800
C194        C  0.62655524  0.11724427  0.29381159    -0.04300
H195        H  0.59594072  0.09442731  0.29360648     0.09500
H196        H  0.63544056  0.12527283  0.28963029     0.10700
Cu197      Cu  0.60923086  0.08830231  0.32946881     0.44200
Cu198      Cu  0.64280089  0.11386678  0.32609487     0.42000
Cu199      Cu  0.63641805  0.09159875  0.36205902     0.43900
N200        N  0.60535564  0.07822100  0.35132741    -0.32900
N201        N  0.61495722  0.07980497  0.36341940    -0.27200
C202        C  0.60820311  0.07329868  0.37617384    -0.03300
C203        C  0.59371019  0.06721231  0.37186579     0.08900
C204        C  0.59237216  0.07053942  0.35600587     0.02700
H205        H  0.61331719  0.07332102  0.38778272     0.10400
H206        H  0.58228910  0.06836979  0.34860308     0.09500
N207        N  0.65697159  0.10407016  0.35716887    -0.34400
N208        N  0.65902250  0.11247069  0.34426542    -0.26600
C209        C  0.67354295  0.11868623  0.34439868    -0.01800
C210        C  0.68113942  0.11393820  0.35798169     0.06800
C211        C  0.67023409  0.10465753  0.36579028     0.04900
H212        H  0.67843844  0.12560365  0.33493721     0.10000
H213        H  0.67183408  0.09866800  0.37687143     0.08800
N214        N  0.48185451  0.02745167  0.42028490    -0.01700
C215        C  0.46783807  0.02654611  0.41272344     0.00900
C216        C  0.46741947  0.03688665  0.40024622    -0.22000
C217        C  0.48158227  0.04449289  0.40006347    -0.22200
C218        C  0.49023947  0.03856742  0.41246444     0.00800
H219        H  0.45830594  0.03781454  0.39143608     0.14500
H220        H  0.48554472  0.05267152  0.39117634     0.14600
N221        N  0.65372222  0.66061420  0.89497477    -0.25500
N222        N  0.65173743  0.64562912  0.89840612    -0.33400
C223        C  0.66524371  0.63791706  0.89567533     0.02800
C224        C  0.67631225  0.64856394  0.89018828     0.08800
C225        C  0.66852203  0.66286249  0.88994736    -0.04300
H226        H  0.66682714  0.62546044  0.89756954     0.09500
H227        H  0.67305484  0.67402040  0.88589252     0.10700
Cu228      Cu  0.63043600  0.63651301  0.90600829     0.44200
Cu229      Cu  0.63576307  0.67692673  0.89626462     0.42000
Cu230      Cu  0.59641389  0.66260153  0.90515406     0.43900
N231        N  0.60805254  0.63009377  0.91327874    -0.32900
N232        N  0.59559856  0.63936149  0.91280818    -0.27200
C233        C  0.58311103  0.63144468  0.91848595    -0.03300
C234        C  0.58798956  0.61652373  0.92286324     0.08900
C235        C  0.60386116  0.61613142  0.91931706     0.02700
H236        H  0.57146585  0.63631953  0.91966311     0.10400
H237        H  0.61180340  0.60636124  0.92085991     0.09500
N238        N  0.60139498  0.68561129  0.89844252    -0.34400
N239        N  0.61578032  0.69074840  0.89565794    -0.26600
C240        C  0.61515905  0.70598460  0.89165115    -0.01800
C241        C  0.59963301  0.71079660  0.89186521     0.06800
C242        C  0.59121637  0.69752044  0.89620269     0.04900
H243        H  0.62528649  0.71289439  0.88833800     0.10000
H244        H  0.57864848  0.69657524  0.89773205     0.08800
N245        N  0.65310469  0.37160553  0.07297304    -0.25500
N246        N  0.65249796  0.38400582  0.06366615    -0.33400
C247        C  0.66579485  0.39237730  0.06541682     0.02800
C248        C  0.67525485  0.38489171  0.07639466     0.08800
C249        C  0.66675338  0.37177069  0.08093731    -0.04300
H250        H  0.66833776  0.40313221  0.05918379     0.09500
H251        H  0.67043185  0.36269345  0.08900900     0.10700
Cu252      Cu  0.63337867  0.38883778  0.04922736     0.44200
Cu253      Cu  0.63580095  0.35445769  0.07349409     0.42000
Cu254      Cu  0.60163809  0.35980459  0.04879545     0.43900
N255        N  0.61165663  0.39235922  0.03859196    -0.32900
N256        N  0.59994340  0.38215316  0.03891164    -0.27200
C257        C  0.58716920  0.38880362  0.03232965    -0.03300
C258        C  0.59107990  0.40384319  0.02749962     0.08900
C259        C  0.60670756  0.40564321  0.03162374     0.02700
H260        H  0.57588785  0.38312336  0.03118783     0.10400
H261        H  0.61379874  0.41607401  0.03023542     0.09500
N262        N  0.60647997  0.33900704  0.06080279    -0.34400
N263        N  0.61869446  0.33741250  0.07025497    -0.26600
C264        C  0.61848353  0.32296247  0.07660512    -0.01800
C265        C  0.60558616  0.31494639  0.07082920     0.06800
C266        C  0.59826092  0.32547218  0.06076716     0.04900
H267        H  0.62729928  0.31850233  0.08458683     0.10000
H268        H  0.58763482  0.32352601  0.05410109     0.08800
N269        N  0.54129439  0.50518628  0.96744433    -0.01700
C270        C  0.54957745  0.51400670  0.95705625     0.00900
C271        C  0.56368920  0.50681307  0.95352317    -0.22000
C272        C  0.56415720  0.49311982  0.96199158    -0.22200
C273        C  0.55030175  0.49239704  0.97036003     0.00800
H274        H  0.57308757  0.51155808  0.94640132     0.14500
H275        H  0.57384541  0.48491345  0.96255853     0.14600
N276        N  0.31211567  0.37611111  0.88663143    -0.25500
N277        N  0.31515594  0.39080823  0.89057490    -0.33400
C278        C  0.30171327  0.39917039  0.88969308     0.02800
C279        C  0.28959891  0.38922525  0.88509329     0.08800
C280        C  0.29674061  0.37471398  0.88326626    -0.04300
H281        H  0.30078082  0.41151332  0.89248703     0.09500
H282        H  0.29121766  0.36390533  0.87954391     0.10700
Cu283      Cu  0.33758504  0.39840949  0.89737696     0.44200
Cu284      Cu  0.32892328  0.35842585  0.88599148     0.42000
Cu285      Cu  0.36840713  0.36871529  0.89740523     0.43900
N286        N  0.36090480  0.40252307  0.90417985    -0.32900
N287        N  0.37203655  0.39171387  0.90391073    -0.27200
C288        C  0.38546859  0.39782863  0.90950549    -0.03300
C289        C  0.38277522  0.41330925  0.91365772     0.08900
C290        C  0.36702548  0.41583373  0.91008018     0.02700
H291        H  0.39628274  0.39130060  0.91067427     0.10400
H292        H  0.36026401  0.42634780  0.91226699     0.09500
N293        N  0.36177778  0.34630754  0.89122631    -0.34400
N294        N  0.34741279  0.34252776  0.88679497    -0.26600
C295        C  0.34710130  0.32719100  0.88312936    -0.01800
C296        C  0.36199887  0.32097078  0.88545525     0.06800
C297        C  0.37096405  0.33350446  0.89064407     0.04900
H298        H  0.33683849  0.32117713  0.87872899     0.10000
H299        H  0.38323278  0.33342489  0.89385173     0.08800
N300        N  0.30903724  0.65031004  0.07510734    -0.25500
N301        N  0.31216495  0.63534303  0.07255797    -0.33400
C302        C  0.29891531  0.62694788  0.07446874     0.02800
C303        C  0.28682040  0.63710911  0.07845771     0.08800
C304        C  0.29373959  0.65184748  0.07877641    -0.04300
H305        H  0.29822051  0.61433731  0.07324319     0.09500
H306        H  0.28805943  0.66292696  0.08124999     0.10700
Cu307      Cu  0.33437824  0.62719247  0.06642639     0.44200
Cu308      Cu  0.32590046  0.66776053  0.07337204     0.42000
Cu309      Cu  0.36583192  0.65559426  0.06283275     0.43900
N310        N  0.35702900  0.62163483  0.05909596    -0.32900
N311        N  0.36853722  0.63195277  0.05769808    -0.27200
C312        C  0.38126560  0.62473099  0.05169637    -0.03300
C313        C  0.37757637  0.60909542  0.04908738     0.08900
C314        C  0.36212147  0.60759818  0.05403082     0.02700
H315        H  0.39211169  0.63061716  0.04873837     0.10400
H316        H  0.35492475  0.59714494  0.05368075     0.09500
N317        N  0.35940648  0.67846548  0.06815239    -0.34400
N318        N  0.34493892  0.68282073  0.07174222    -0.26600
C319        C  0.34481441  0.69830681  0.07466051    -0.01800
C320        C  0.35992053  0.70402199  0.07287301     0.06800
C321        C  0.36887509  0.69109205  0.06875870     0.04900
H322        H  0.33453295  0.70480758  0.07829556     0.10000
H323        H  0.38133731  0.69083584  0.06635213     0.08800
N324        N  0.42567860  0.50651298  0.98870072    -0.01700
C325        C  0.41643317  0.51720466  0.99611748     0.00900
C326        C  0.40111562  0.51198725  0.99688386    -0.22000
C327        C  0.40077243  0.49763818  0.98970255    -0.22200
C328        C  0.41592895  0.49448117  0.98478346     0.00800
H329        H  0.39121126  0.51810563  0.00197355     0.14500
H330        H  0.39044591  0.49047526  0.98782253     0.14600
N331        N  0.80935578  0.41512247  0.11956130    -0.25500
N332        N  0.81136236  0.42094926  0.10530628    -0.33400
C333        C  0.79788386  0.41937356  0.09717619     0.02800
C334        C  0.78693560  0.41200548  0.10669733     0.08800
C335        C  0.79464356  0.40943044  0.12077914    -0.04300
H336        H  0.79620144  0.42322916  0.08520856     0.09500
H337        H  0.78975596  0.40427866  0.13129521     0.10700
Cu338      Cu  0.83249657  0.43056569  0.09755300     0.44200
Cu339      Cu  0.82630743  0.41648106  0.13713499     0.42000
Cu340      Cu  0.86403058  0.43293291  0.12635948     0.43900
N341        N  0.85499268  0.43882424  0.09253698    -0.32900
N342        N  0.86646512  0.43957115  0.10296970    -0.27200
C343        C  0.87919825  0.44602938  0.09617341    -0.03300
C344        C  0.87562939  0.44955817  0.08068152     0.08900
C345        C  0.86016069  0.44475785  0.07883014     0.02700
H346        H  0.89015558  0.44819217  0.10218535     0.10400
H347        H  0.85293794  0.44608213  0.06847254     0.09500
N348        N  0.85794743  0.42714996  0.14931300    -0.34400
N349        N  0.84412829  0.42124301  0.15319873    -0.26600
C350        C  0.84359014  0.41933069  0.16886475    -0.01800
C351        C  0.85775412  0.42424843  0.17524432     0.06800
C352        C  0.86659284  0.42907926  0.16242441     0.04900
H353        H  0.83365688  0.41451254  0.17510874     0.10000
H354        H  0.87831275  0.43391155  0.16259890     0.08800
N355        N  0.80937907  0.62206382  0.84207078    -0.25500
N356        N  0.81177016  0.61535197  0.85584298    -0.33400
C357        C  0.79864890  0.61646809  0.86452710     0.02800
C358        C  0.78733854  0.62431447  0.85585173     0.08800
C359        C  0.79459080  0.62765529  0.84162826    -0.04300
H360        H  0.79741642  0.61166514  0.87620895     0.09500
H361        H  0.78960088  0.63388659  0.83175361     0.10700
Cu362      Cu  0.83268759  0.60482319  0.86216581     0.44200
Cu363      Cu  0.82657240  0.62299722  0.82469236     0.42000
Cu364      Cu  0.86432521  0.60409182  0.83391679     0.43900
N365        N  0.85402304  0.59402971  0.86627177    -0.32900
N366        N  0.86578386  0.59367436  0.85615645    -0.27200
C367        C  0.87767346  0.58532737  0.86252554    -0.03300
C368        C  0.87304359  0.58010694  0.87728378     0.08900
C369        C  0.85800672  0.58594756  0.87920565     0.02700
H370        H  0.88865906  0.58287369  0.85668117     0.10400
H371        H  0.85044072  0.58445449  0.88929027     0.10700
N372        N  0.85899533  0.61471856  0.81236482    -0.34400
N373        N  0.84542253  0.62157717  0.80914216    -0.26600
C374        C  0.84567446  0.62674789  0.79420475    -0.01800
C375        C  0.86005609  0.62296057  0.78755848     0.06800
C376        C  0.86818336  0.61534531  0.79949441     0.04900
H377        H  0.83584273  0.63236735  0.78845488     0.10000
H378        H  0.87991306  0.61054253  0.79889773     0.08800
N379        N  0.91760896  0.51581095  0.97967210    -0.01700
C380        C  0.90786568  0.51941191  0.96756189     0.00900
C381        C  0.89238224  0.51727449  0.97187352    -0.22000
C382        C  0.89249723  0.51219656  0.98712172    -0.22200
C383        C  0.90805463  0.51139329  0.99165970     0.00800
H384        H  0.88209237  0.51949174  0.96474824     0.14500
H385        H  0.88232866  0.50914584  0.99411066     0.14600
N386        N  0.15352455  0.60485532  0.12082423    -0.25500
N387        N  0.15014205  0.60021610  0.10644295    -0.33400
C388        C  0.16300857  0.60175444  0.09737273     0.02800
C389        C  0.17516337  0.60764506  0.10650573     0.08800
C390        C  0.16862299  0.60946067  0.12132146    -0.04300
H391        H  0.16346958  0.59865319  0.08508277     0.09500
H392        H  0.17427911  0.61414518  0.13166788     0.10700
Cu393      Cu  0.12792845  0.59233287  0.10021002     0.44200
Cu394      Cu  0.13708878  0.60515595  0.13885606     0.42000
Cu395      Cu  0.09671919  0.59353562  0.12984618     0.43900
N396        N  0.10494015  0.58517919  0.09629759    -0.32900
N397        N  0.09341699  0.58579644  0.10670807    -0.27200
C398        C  0.08027477  0.57983562  0.10009939    -0.03300
C399        C  0.08382922  0.57511752  0.08491989     0.08900
C400        C  0.09953967  0.57870607  0.08298734     0.02700
H401        H  0.06920924  0.57834495  0.10611710     0.10400
H402        H  0.10665490  0.57643925  0.07273115     0.09500
N403        N  0.10412823  0.60158964  0.15190444    -0.34400
N404        N  0.11876155  0.60577879  0.15497380    -0.26600
C405        C  0.11970166  0.61071907  0.16992495    -0.01800
C406        C  0.10498260  0.60956842  0.17684198     0.06800
C407        C  0.09540761  0.60371003  0.16495566     0.04900
H408        H  0.13033601  0.61520376  0.17518060     0.10000
H409        H  0.08303231  0.60103775  0.16570874     0.08800
N410        N  0.15159904  0.41336018  0.85000347    -0.25500
N411        N  0.14895665  0.41804212  0.86452435    -0.33400
C412        C  0.16251478  0.41714318  0.87268755     0.02800
C413        C  0.17432273  0.41163295  0.86279581     0.08800
C414        C  0.16680973  0.40935275  0.84851031    -0.04300
H415        H  0.16371843  0.42055535  0.88484309     0.09500
H416        H  0.17193229  0.40493167  0.83778068     0.10700
Cu417      Cu  0.12668406  0.42551173  0.87182701     0.44200
Cu418      Cu  0.13429670  0.41309997  0.83284715     0.42000
Cu419      Cu  0.09435477  0.42465803  0.84276482     0.43900
N420        N  0.10351411  0.43251949  0.87626859    -0.32900
N421        N  0.09180839  0.43196780  0.86604452    -0.27200
C422        C  0.07872809  0.43775781  0.87287436    -0.03300
C423        C  0.08238138  0.44233773  0.88806268     0.08900
C424        C  0.09818452  0.43875703  0.88975158     0.02700
H425        H  0.06756940  0.43912907  0.86699950     0.10400
H426        H  0.10537947  0.44066287  0.90002901     0.09500
N427        N  0.10149045  0.41857567  0.82009596    -0.34400
N428        N  0.11608776  0.41451021  0.81671088    -0.26600
C429        C  0.11729015  0.41198529  0.80120619    -0.01800
C430        C  0.10279138  0.41460684  0.79431031     0.06800
C431        C  0.09300451  0.41868921  0.80671248     0.04900
H432        H  0.12801746  0.40845663  0.79541286     0.10000
H433        H  0.08076200  0.42196680  0.80601781     0.08800
N434        N  0.03422735  0.50422616  0.98884886    -0.01700
C435        C  0.04300402  0.49391264  0.98041853     0.00900
C436        C  0.05827516  0.49360225  0.98585467    -0.22000
C437        C  0.05903733  0.50402213  0.99805563    -0.22200
C438        C  0.04421831  0.51039519  0.99968943     0.00800
H439        H  0.06797102  0.48697052  0.98101426     0.14500
H440        H  0.06935877  0.50685303  0.00490555     0.14600
N441        N  0.88506076  0.68877820  0.61656757    -0.25500
N442        N  0.88926070  0.68547755  0.60202762    -0.33400
C443        C  0.88717362  0.69828789  0.59301372     0.02800
C444        C  0.88121307  0.71018412  0.60234124     0.08800
C445        C  0.87999077  0.70371345  0.61720107    -0.04300
H446        H  0.88976707  0.69887400  0.58060330     0.09500
H447        H  0.87613139  0.70955493  0.62778735     0.10700
Cu448      Cu  0.89760818  0.66359427  0.59552481     0.44200
Cu449      Cu  0.88715417  0.67282258  0.63478421     0.42000
Cu450      Cu  0.89979256  0.63288981  0.62565814     0.43900
N451        N  0.90569263  0.64100394  0.59152331    -0.32900
N452        N  0.90639683  0.62969239  0.60216394    -0.27200
C453        C  0.91267799  0.61679319  0.59542762    -0.03300
C454        C  0.91622752  0.62027683  0.57990163     0.08900
C455        C  0.91154730  0.63569535  0.57789774     0.02700
H456        H  0.91503748  0.60591437  0.60152209     0.10400
H457        H  0.91246944  0.64265699  0.56731867     0.09500
N458        N  0.89351667  0.64049686  0.64820965    -0.34400
N459        N  0.88946999  0.65515933  0.65133742    -0.26600
C460        C  0.88648555  0.65655430  0.66674987    -0.01800
C461        C  0.88858062  0.64208331  0.67380093     0.06800
C462        C  0.89297866  0.63212190  0.66166818     0.04900
H463        H  0.88262298  0.66726756  0.67233792     0.10000
H464        H  0.89569051  0.61975877  0.66257465     0.08800
N465        N  0.08310701  0.69251570  0.34449134    -0.25500
N466        N  0.07858144  0.68931164  0.35896555    -0.33400
C467        C  0.08050245  0.70213721  0.36794705     0.02800
C468        C  0.08657052  0.71410618  0.35872191     0.08800
C469        C  0.08804253  0.70753634  0.34387380    -0.04300
H470        H  0.07741473  0.70274449  0.38023562     0.09500
H471        H  0.09254196  0.71317317  0.33342234     0.10700
Cu472      Cu  0.06962106  0.66769227  0.36562574     0.44200
Cu473      Cu  0.08198608  0.67596179  0.32652128     0.42000
Cu474      Cu  0.06540186  0.63716129  0.33619191     0.43900
N475        N  0.05930858  0.64608129  0.36996692    -0.32900
N476        N  0.05740486  0.63492648  0.35937345    -0.27200
C477        C  0.04931744  0.62300462  0.36600360    -0.03300
C478        C  0.04594975  0.62686266  0.38153047     0.08900
C479        C  0.05264327  0.64157089  0.38352415     0.02700
H480        H  0.04569349  0.61257081  0.35978168     0.10400
H481        H  0.05265240  0.64865943  0.39403358     0.09500
N482        N  0.07372293  0.64357939  0.31390970    -0.34400
N483        N  0.07946685  0.65761328  0.31052428    -0.26600
C484        C  0.08340810  0.65803693  0.29523992    -0.01800
C485        C  0.08013983  0.64355996  0.28850053     0.06800
C486        C  0.07398766  0.63471341  0.30080295     0.04900
H487        H  0.08810644  0.66831653  0.28947605     0.10000
H488        H  0.07019260  0.62262129  0.30038853     0.08800
N489        N  0.97149581  0.57399114  0.47467769    -0.01700
C490        C  0.95992287  0.58141796  0.48278354     0.00900
C491        C  0.95595462  0.59540872  0.47559728    -0.22000
C492        C  0.96527279  0.59671815  0.46258020    -0.22200
C493        C  0.97463300  0.58348843  0.46219761     0.00800
H494        H  0.94775702  0.60412806  0.47985993     0.14500
H495        H  0.96568225  0.60658926  0.45457819     0.14600
N496        N  0.88821027  0.34847102  0.34096121    -0.25500
N497        N  0.89553528  0.35010909  0.35452672    -0.33400
C498        C  0.89463756  0.33653504  0.36256734     0.02800
C499        C  0.88618185  0.32585124  0.35370685     0.08800
C500        C  0.88225450  0.33385376  0.34008353    -0.04300
H501        H  0.89941904  0.33472168  0.37417998     0.09500
H502        H  0.87570161  0.32934774  0.33019833     0.10700
Cu503      Cu  0.90544695  0.37113344  0.36174783     0.44200
Cu504      Cu  0.88710838  0.36630164  0.32432956     0.42000
Cu505      Cu  0.90288057  0.40460464  0.33493815     0.43900
N506        N  0.91282055  0.39366742  0.36729935    -0.32900
N507        N  0.91189522  0.40587278  0.35773394    -0.27200
C508        C  0.91780509  0.41856181  0.36510387    -0.03300
C509        C  0.92263057  0.41414473  0.38004779     0.08900
C510        C  0.91926273  0.39825287  0.38094597     0.02700
H511        H  0.91847299  0.43013257  0.35995447     0.10400
H512        H  0.92167126  0.39044106  0.39064990     0.09500
N513        N  0.89364408  0.39936313  0.31280980    -0.34400
N514        N  0.88809007  0.38536085  0.30910056    -0.26600
C515        C  0.88314340  0.38558437  0.29413185    -0.01800
C516        C  0.88547788  0.40049472  0.28796749     0.06800
C517        C  0.89225501  0.40889540  0.30022335     0.04900
H518        H  0.87835809  0.37546005  0.28817560     0.10000
H519        H  0.89565807  0.42111810  0.30015870     0.08800
N520        N  0.08866246  0.34973747  0.62148016    -0.25500
N521        N  0.08578276  0.35321181  0.60666615    -0.33400
C522        C  0.08844264  0.34039708  0.59780001     0.02800
C523        C  0.09319244  0.32818830  0.60755687     0.08800
C524        C  0.09322122  0.33466226  0.62249598    -0.04300
H525        H  0.08652467  0.33989145  0.58526975     0.09500
H526        H  0.09636196  0.32890078  0.63336449     0.10700
Cu527      Cu  0.07730269  0.37512497  0.60005854     0.44200
Cu528      Cu  0.08579980  0.36579055  0.63950507     0.42000
Cu529      Cu  0.07052189  0.40488153  0.63078321     0.43900
N530        N  0.06654459  0.39673843  0.59642395    -0.32900
N531        N  0.06389823  0.40752568  0.60725888    -0.27200
C532        C  0.05616248  0.41964873  0.60055928    -0.03300
C533        C  0.05385413  0.41634240  0.58473041     0.08900
C534        C  0.06056292  0.40164773  0.58270398     0.02700
H535        H  0.05256846  0.43008793  0.60678792     0.10400
H536        H  0.06068057  0.39465031  0.57213513     0.09500
N537        N  0.07809798  0.39776763  0.65306317    -0.34400
N538        N  0.08335758  0.38346573  0.65601888    -0.26600
C539        C  0.08706318  0.38232181  0.67128833    -0.01800
C540        C  0.08416554  0.39661006  0.67850207     0.06800
C541        C  0.07843558  0.40613268  0.66649688     0.04900
H542        H  0.09129157  0.37165602  0.67672225     0.10000
H543        H  0.07492221  0.41829177  0.66735635     0.08800
N544        N  0.98913206  0.45791063  0.48088296    -0.01700
C545        C  0.99459356  0.44840640  0.49249865     0.00900
C546        C  0.99456419  0.43292737  0.48771131    -0.22000
C547        C  0.98886760  0.43276996  0.47269228    -0.22200
C548        C  0.98558727  0.44816453  0.46877028     0.00800
H549        H  0.99846117  0.42284835  0.49440987     0.14500
H550        H  0.98692851  0.42248270  0.46550702     0.14600
N551        N  0.12897741  0.84726323  0.39271554    -0.25500
N552        N  0.11418370  0.85068575  0.39578748    -0.33400
C553        C  0.10547589  0.83757302  0.39461187     0.02800
C554        C  0.11521691  0.82518969  0.39041611     0.08800
C555        C  0.13008197  0.83186548  0.38936855    -0.04300
H556        H  0.09295594  0.83720427  0.39661351     0.09500
H557        H  0.14084590  0.82614363  0.38583863     0.10700
Cu558      Cu  0.10660145  0.87326926  0.40066940     0.44200
Cu559      Cu  0.14652393  0.86420828  0.39246436     0.42000
Cu560      Cu  0.13450931  0.90529054  0.39979136     0.43900
N561        N  0.10114129  0.89611340  0.40695580    -0.32900
N562        N  0.11114111  0.90798054  0.40703539    -0.27200
C563        C  0.10396598  0.92058703  0.41349073    -0.03300
C564        C  0.08878036  0.91631113  0.41777536     0.08900
C565        C  0.08746939  0.90077123  0.41321073     0.02700
H566        H  0.10965113  0.93169732  0.41572557     0.10400
H567        H  0.07746583  0.89313712  0.41482215     0.09500
N568        N  0.15724055  0.89821546  0.39351654    -0.34400
N569        N  0.16151955  0.88343352  0.39134392    -0.26600
C570        C  0.17690538  0.88296950  0.38778841    -0.01800
C571        C  0.18270041  0.89815925  0.38761265     0.06800
C572        C  0.16985331  0.90751420  0.39125840     0.04900
H573        H  0.18329198  0.87233413  0.38512258     0.10000
H574        H  0.16969752  0.92015036  0.39237714     0.08800
N575        N  0.84689164  0.84662720  0.57584813    -0.25500
N576        N  0.86189362  0.84955299  0.57327819    -0.33400
C577        C  0.86994689  0.83596617  0.57399154     0.02800
C578        C  0.85944728  0.82388878  0.57714774     0.08800
C579        C  0.84493563  0.83115596  0.57822901    -0.04300
H580        H  0.88248115  0.83498391  0.57226683     0.09500
H581        H  0.83381659  0.82571159  0.58104205     0.10700
Cu582      Cu  0.87017347  0.87208339  0.56883828     0.44200
Cu583      Cu  0.83001374  0.86400631  0.57675481     0.42000
Cu584      Cu  0.84167716  0.90446748  0.56983002     0.43900
N585        N  0.87503964  0.89505309  0.56210916    -0.32900
N586        N  0.86485953  0.90678994  0.56230422    -0.27200
C587        C  0.87152854  0.91946766  0.55553508    -0.03300
C588        C  0.88655779  0.91546243  0.55072568     0.08900
C589        C  0.88836354  0.89993373  0.55522225     0.02700
H590        H  0.86551657  0.93041627  0.55333356     0.10400
H591        H  0.89838257  0.89246704  0.55302849     0.09500
N592        N  0.81905378  0.89775059  0.57634540    -0.34400
N593        N  0.81497450  0.88294150  0.57857648    -0.26600
C594        C  0.79965985  0.88224830  0.58221308    -0.01800
C595        C  0.79366754  0.89733535  0.58227924     0.06800
C596        C  0.80633412  0.90690820  0.57857676     0.04900
H597        H  0.79340152  0.87149912  0.58474612     0.10000
H598        H  0.80624551  0.91952657  0.57723265     0.08800
N599        N  0.98329661  0.95913238  0.47928350    -0.01700
C600        C  0.97104413  0.94986226  0.48355868     0.00900
C601        C  0.97408841  0.93437005  0.47988555    -0.22000
C602        C  0.98868780  0.93401563  0.47309084    -0.22200
C603        C  0.99408948  0.94929855  0.47282087     0.00800
H604        H  0.96661978  0.92436142  0.48224988     0.14500
H605        H  0.99478709  0.92370770  0.46886352     0.14600
N606        N  0.13047796  0.19390844  0.57209697    -0.25500
N607        N  0.11563035  0.19118653  0.56849429    -0.33400
C608        C  0.10717340  0.20425640  0.57138480     0.02800
C609        C  0.11718203  0.21573322  0.57721447     0.08800
C610        C  0.13185792  0.20868994  0.57746325    -0.04300
H611        H  0.09464793  0.20522426  0.56962840     0.09500
H612        H  0.14280726  0.21396658  0.58110699     0.10700
Cu613      Cu  0.10785448  0.16953594  0.56009532     0.44200
Cu614      Cu  0.14822762  0.17730556  0.56977422     0.42000
Cu615      Cu  0.13730458  0.13834354  0.55658472     0.43900
N616        N  0.10318180  0.14703741  0.55160953    -0.32900
N617        N  0.11375124  0.13572949  0.55029643    -0.27200
C618        C  0.10686050  0.12301097  0.54387300    -0.03300
C619        C  0.09119862  0.12645971  0.54091693     0.08900
C620        C  0.08935032  0.14180158  0.54606725     0.02700
H621        H  0.11296775  0.11225978  0.54104402     0.10400
H622        H  0.07874368  0.14876287  0.54572936     0.09500
N623        N  0.16006740  0.14448769  0.56328698    -0.34400
N624        N  0.16401859  0.15878020  0.56784753    -0.26600
C625        C  0.17942723  0.15900307  0.57134303    -0.01800
C626        C  0.18557531  0.14412404  0.56892425     0.06800
C627        C  0.17289093  0.13522799  0.56383629     0.04900
H628        H  0.18558946  0.16919395  0.57572525     0.10000
H629        H  0.17296608  0.12295378  0.56062936     0.08800
N630        N  0.84637502  0.19164674  0.38730654    -0.25500
N631        N  0.85990351  0.19045068  0.39480484    -0.33400
C632        C  0.86736767  0.20439968  0.39413651     0.02800
C633        C  0.85811591  0.21482629  0.38567515     0.08800
C634        C  0.84489613  0.20629263  0.38155937    -0.04300
H635        H  0.87886111  0.20663172  0.39899103     0.09500
H636        H  0.83494261  0.21039952  0.37485660     0.10700
Cu637      Cu  0.86754738  0.16940884  0.40476493     0.44200
Cu638      Cu  0.83064958  0.17316219  0.38514537     0.42000
Cu639      Cu  0.84054640  0.13578440  0.40346226     0.43900
N640        N  0.87283578  0.14708235  0.41339584    -0.32900
N641        N  0.86326032  0.13485246  0.41296326    -0.27200
C642        C  0.87064756  0.12237436  0.41941127    -0.03300
C643        C  0.88556195  0.12697800  0.42421975     0.08900
C644        C  0.88644619  0.14272228  0.42011827     0.02700
H645        H  0.86545624  0.11087118  0.42066149     0.10400
H646        H  0.89639527  0.15045642  0.42162189     0.09500
N647        N  0.81900428  0.14036082  0.39241892    -0.34400
N648        N  0.81583326  0.15381093  0.38530361    -0.26600
C649        C  0.80129825  0.15315755  0.37916655    -0.01800
C650        C  0.79482518  0.13868875  0.38268273     0.06800
C651        C  0.80635926  0.13087843  0.39117396     0.04900
H652        H  0.79562577  0.16275829  0.37308335     0.10000
H653        H  0.80560150  0.11919828  0.39609344     0.08800
N654        N  0.99423975  0.07562580  0.47416177    -0.01700
C655        C  0.98484100  0.08523495  0.46555611     0.00900
C656        C  0.99240277  0.09921969  0.46240781    -0.22000
C657        C  0.00697944  0.09821672  0.46917765    -0.22200
C658        C  0.00787509  0.08364517  0.47625619     0.00800
H659        H  0.98752793  0.10934788  0.45646951     0.14500
H660        H  0.01559196  0.10753728  0.46984497     0.14600
C661        C  0.94167317  0.09263581  0.46711334     0.14400
C662        C  0.93782914  0.09181070  0.45104718     0.01400
C663        C  0.94872417  0.08485597  0.44070520     0.16400
C664        C  0.96367654  0.08040810  0.44606022     0.25800
C665        C  0.96805152  0.08298982  0.46172902    -0.40600
C666        C  0.95672526  0.08853654  0.47234211     0.32800
C667        C  0.92365846  0.10021429  0.44489892     0.01400
F668        F  0.94554076  0.08380457  0.42513639    -0.12900
F669        F  0.96077719  0.09169130  0.48742197    -0.13400
C670        C  0.92129018  0.11612955  0.44871246     0.16400
C671        C  0.90861248  0.12452001  0.44248415     0.25800
C672        C  0.89812627  0.11741336  0.43187358    -0.40500
C673        C  0.90027269  0.10140083  0.42824557     0.32700
C674        C  0.91289180  0.09289578  0.43470627     0.14400
F675        F  0.93162750  0.12382844  0.45808772    -0.12900
F676        F  0.89053484  0.09408270  0.41799015    -0.13400
F677        F  0.90657858  0.13965925  0.44700120    -0.15700
F678        F  0.91461712  0.07751627  0.43093116    -0.14200
F679        F  0.93123100  0.09858353  0.47757864    -0.14200
F680        F  0.97445222  0.07507028  0.43560801    -0.15700
C681        C  0.04800000  0.08267061  0.49382076     0.14400
C682        C  0.04457678  0.08851332  0.50884520     0.01400
C683        C  0.02892681  0.08855797  0.51406512     0.16400
C684        C  0.01674233  0.08433112  0.50385584     0.25800
C685        C  0.02003652  0.08035271  0.48820056    -0.40600
C686        C  0.03578313  0.07873591  0.48350108     0.32800
C687        C  0.05653745  0.09780984  0.51740660     0.01400
F688        F  0.02534381  0.09427353  0.52849108    -0.12900
F689        F  0.03926217  0.07497068  0.46842379    -0.13400
C690        C  0.05666809  0.11417309  0.51549378     0.16400
C691        C  0.06789794  0.12340003  0.52309086     0.25800
C692        C  0.07927628  0.11646753  0.53290555    -0.40500
C693        C  0.07914632  0.09999201  0.53480506     0.32700
C694        C  0.06786466  0.09073942  0.52707558     0.14400
F695        F  0.04598076  0.12121933  0.50597354    -0.12900
F696        F  0.08967567  0.09286405  0.54441882    -0.13400
F697        F  0.06792133  0.13909584  0.52033665    -0.15700
F698        F  0.06791467  0.07493345  0.52910970    -0.14200
F699        F  0.06305689  0.08242163  0.48858639    -0.14200
F700        F  0.00163598  0.08625934  0.50858110    -0.15700
C701        C  0.99742069  0.99997652  0.48775082     0.14400
C702        C  0.98593527  0.00905196  0.48014557     0.01400
C703        C  0.97319787  0.00153712  0.47287619     0.16400
C704        C  0.97224332  0.98512511  0.47278513     0.25800
C705        C  0.98395104  0.97600770  0.48005646    -0.40600
C706        C  0.99637581  0.98357827  0.48780002     0.32800
C707        C  0.98791898  0.02625313  0.47882326     0.01400
F708        F  0.96202093  0.01008465  0.46537175    -0.12900
F709        F  0.00737446  0.97509781  0.49557562    -0.13400
C710        C  0.99920495  0.03235099  0.46848294     0.16400
C711        C  0.00135607  0.04856788  0.46717683     0.25800
C712        C  0.99223850  0.05896825  0.47616220    -0.40500
C713        C  0.98094087  0.05288958  0.48651926     0.32700
C714        C  0.97875419  0.03660481  0.48781926     0.14400
F715        F  0.00794420  0.02255162  0.45945152    -0.12900
F716        F  0.97227308  0.06269729  0.49554505    -0.13400
F717        F  0.01211806  0.05420006  0.45686104    -0.15700
F718        F  0.96784875  0.03091422  0.49795560    -0.14200
F719        F  0.00969929  0.00704571  0.49504277    -0.14200
F720        F  0.96022947  0.97809441  0.46505100    -0.15700
C721        C  0.91044104  0.94931949  0.53374368     0.14400
C722        C  0.91853849  0.94173860  0.52153150     0.01400
C723        C  0.91585686  0.92566894  0.51892291     0.16400
C724        C  0.90543402  0.91726772  0.52834725     0.25800
C725        C  0.89737616  0.92471427  0.54066792    -0.40600
C726        C  0.89980693  0.94088928  0.54316808     0.32800
C727        C  0.93045170  0.94990481  0.51175485     0.01400
F728        F  0.92366392  0.91795574  0.50736666    -0.12900
F729        F  0.89225599  0.94840945  0.55500176    -0.13400
C730        C  0.94483919  0.95459636  0.51838575     0.16400
C731        C  0.95802440  0.95693512  0.50876588     0.25800
C732        C  0.95691377  0.95450677  0.49249413    -0.40500
C733        C  0.94210372  0.95179577  0.48578263     0.32700
C734        C  0.92892519  0.94969425  0.49533057     0.14400
F735        F  0.94658684  0.95508680  0.53421328    -0.12900
F736        F  0.94073997  0.94951220  0.47007602    -0.13400
F737        F  0.97222878  0.95957694  0.51550003    -0.15700
F738        F  0.91500882  0.94574989  0.48862375    -0.14200
F739        F  0.91280986  0.96482845  0.53650362    -0.14200
F740        F  0.90301006  0.90184931  0.52514497    -0.15700
C741        C  0.02570397  0.95351485  0.44251526     0.14400
C742        C  0.03885161  0.94851975  0.45121541     0.01400
C743        C  0.03761988  0.94759921  0.46765407     0.16400
C744        C  0.02310341  0.94970245  0.47504337     0.25800
C745        C  0.00964962  0.95332960  0.46621992    -0.40600
C746        C  0.01119133  0.95592635  0.44999658     0.32800
C747        C  0.05249322  0.94106280  0.44320378     0.01400
F748        F  0.05018151  0.94310520  0.47639220    -0.12900
F749        F  0.99828161  0.95904263  0.44117343    -0.13400
C750        C  0.06217151  0.94929232  0.43261562     0.16400
C751        C  0.07437901  0.94147902  0.42462975     0.25800
C752        C  0.07693570  0.92528388  0.42700283    -0.40500
C753        C  0.06752355  0.91731616  0.43802058     0.32700
C754        C  0.05541552  0.92504400  0.44585678     0.14400
F755        F  0.05976877  0.96482782  0.42998762    -0.12900
F756        F  0.07010929  0.90196288  0.44143756    -0.13400
F757        F  0.08330436  0.94961085  0.41422332    -0.15700
F758        F  0.04616677  0.91666136  0.45579005    -0.14200
F759        F  0.02646600  0.95437891  0.42662464    -0.14200
F760        F  0.02184068  0.94649028  0.49060352    -0.15700
C761        C  0.09907064  0.25659277  0.57784379     0.14400
C762        C  0.10690262  0.26355444  0.59057986     0.01400
C763        C  0.11774778  0.25457100  0.59919206     0.16400
C764        C  0.12092874  0.23899844  0.59496587     0.25800
C765        C  0.11326105  0.23204584  0.58206857    -0.40600
C766        C  0.10213943  0.24096985  0.57367425     0.32800
C767        C  0.10362401  0.28012239  0.59496004     0.01400
F768        F  0.12545077  0.26097256  0.61158223    -0.12900
F769        F  0.09456206  0.23475838  0.56112180    -0.13400
C770        C  0.09711206  0.28369611  0.60966366     0.16400
C771        C  0.09366486  0.29924819  0.61370684     0.25800
C772        C  0.09682085  0.31164450  0.60317148    -0.40500
C773        C  0.10346401  0.30801973  0.58845804     0.32700
C774        C  0.10680330  0.29241737  0.58440650     0.14400
F775        F  0.09370740  0.27203585  0.61999656    -0.12900
F776        F  0.10714168  0.31957866  0.57811416    -0.13400
F777        F  0.08670470  0.30204221  0.62775219    -0.15700
F778        F  0.11344344  0.28932078  0.57025953    -0.14200
F779        F  0.08832418  0.26492468  0.56951177    -0.14200
F780        F  0.13128485  0.23062014  0.60372907    -0.15700
C781        C  0.00233620  0.44537435  0.53531570     0.14400
C782        C  0.01861871  0.44825490  0.53566129     0.01400
C783        C  0.02572381  0.45522466  0.52241748     0.16400
C784        C  0.01717932  0.45736785  0.50851599     0.25800
C785        C  0.00132223  0.45298072  0.50777421    -0.40600
C786        C  0.99377968  0.44777667  0.52148776     0.32800
C787        C  0.02847849  0.44155391  0.54852100     0.01400
F788        F  0.04129011  0.45868309  0.52252041    -0.12900
F789        F  0.97848728  0.44328057  0.52095250    -0.13400
C790        C  0.04080952  0.43123526  0.54475383     0.16400
C791        C  0.04947314  0.42380190  0.55652026     0.25800
C792        C  0.04561465  0.42582754  0.57247560    -0.40500
C793        C  0.03340887  0.43636548  0.57631541     0.32700
C794        C  0.02504613  0.44425750  0.56445660     0.14400
F795        F  0.04409840  0.42773296  0.52956154    -0.12900
F796        F  0.02907638  0.43860445  0.59146841    -0.13400
F797        F  0.06170825  0.41459276  0.55213711    -0.15700
F798        F  0.01343738  0.45437890  0.56855427    -0.14200
F799        F  0.99502649  0.43856562  0.54773909    -0.14200
F800        F  0.02484861  0.46187882  0.49528786    -0.15700
C801        C  0.88906107  0.28440393  0.36980943     0.14400
C802        C  0.87376315  0.27865060  0.36729446     0.01400
C803        C  0.86264684  0.28852026  0.36001852     0.16400
C804        C  0.86676527  0.30374163  0.35530914     0.25800
C805        C  0.88196672  0.30955004  0.35811640    -0.40600
C806        C  0.89306143  0.29974168  0.36543020     0.32800
C807        C  0.86948340  0.26237043  0.37214269     0.01400
F808        F  0.84764726  0.28357799  0.35783031    -0.12900
F809        F  0.90795694  0.30484738  0.36792808    -0.13400
C810        C  0.87241532  0.25706962  0.38753831     0.16400
C811        C  0.86884901  0.24160158  0.39192348     0.25800
C812        C  0.86190979  0.23122721  0.38112635    -0.40500
C813        C  0.85868544  0.23661559  0.36584262     0.32700
C814        C  0.86260239  0.25194112  0.36134628     0.14400
F815        F  0.87847049  0.26697366  0.39844730    -0.12900
F816        F  0.85227249  0.22684970  0.35502140    -0.13400
F817        F  0.87176892  0.23691451  0.40687515    -0.15700
F818        F  0.86008421  0.25643304  0.34626002    -0.14200
F819        F  0.90027651  0.27504330  0.37620542    -0.14200
F820        F  0.85569485  0.31300271  0.34852714    -0.15700
C821        C  0.97428257  0.44451345  0.42672623     0.14400
C822        C  0.95801740  0.44722756  0.42765521     0.01400
C823        C  0.95183808  0.45413619  0.44133963     0.16400
C824        C  0.96145393  0.45656774  0.45448453     0.25800
C825        C  0.97734145  0.45216429  0.45404149    -0.40600
C826        C  0.98385251  0.44701517  0.43980716     0.32800
C827        C  0.94746012  0.44047289  0.41550756     0.01400
F828        F  0.93625924  0.45736862  0.44236855    -0.12900
F829        F  0.99923313  0.44285585  0.43909049    -0.13400
C830        C  0.93653598  0.42883167  0.41976399     0.16400
C831        C  0.92810553  0.42067549  0.40828265     0.25800
C832        C  0.93047967  0.42388107  0.39223223    -0.40500
C833        C  0.94101911  0.43592478  0.38800383     0.32700
C834        C  0.94941294  0.44413169  0.39953482     0.14400
F835        F  0.93461417  0.42474307  0.43505664    -0.12900
F836        F  0.94390705  0.43919555  0.37268584    -0.13400
F837        F  0.91769504  0.40953308  0.41293756    -0.15700
F838        F  0.95979774  0.45537605  0.39507518    -0.14200
F839        F  0.98064911  0.43781536  0.41375181    -0.14200
F840        F  0.95486608  0.46147145  0.46813040    -0.15700
C841        C  0.96613179  0.53030184  0.47442928     0.14400
C842        C  0.98114580  0.52492066  0.47862423     0.01400
C843        C  0.99313405  0.53594846  0.48140773     0.16400
C844        C  0.99006756  0.55212229  0.48017045     0.25800
C845        C  0.97504441  0.55746586  0.47590224    -0.40600
C846        C  0.96313551  0.54639640  0.47303603     0.32800
C847        C  0.98415848  0.50778149  0.47992842     0.01400
F848        F  0.00770411  0.53103886  0.48562647    -0.12900
F849        F  0.94857691  0.55125614  0.46873263    -0.13400
C850        C  0.99354530  0.50009957  0.46876157     0.16400
C851        C  0.99534481  0.48374713  0.46924288     0.25800
C852        C  0.98791418  0.47480477  0.48097180    -0.40500
C853        C  0.97880690  0.48251582  0.49234887     0.32700
C854        C  0.97687771  0.49886552  0.49178594     0.14400
F855        F  0.00054956  0.50839753  0.45708912    -0.12900
F856        F  0.97123880  0.47412692  0.50358198    -0.13400
F857        F  0.00433888  0.47658022  0.45823275    -0.15700
F858        F  0.96773599  0.50601263  0.50269930    -0.14200
F859        F  0.95441904  0.51991050  0.47143988    -0.14200
F860        F  0.00160557  0.56251215  0.48359646    -0.15700
C861        C  0.10014639  0.74851444  0.38372239     0.14400
C862        C  0.09817058  0.76128129  0.37341970     0.01400
C863        C  0.09229023  0.75842294  0.35824549     0.16400
C864        C  0.08848265  0.74315185  0.35348010     0.25800
C865        C  0.09057167  0.73034993  0.36374482    -0.40600
C866        C  0.09645196  0.73323007  0.37893125     0.32800
C867        C  0.10233523  0.77752490  0.37840683     0.01400
F868        F  0.09044227  0.77042077  0.34789949    -0.12900
F869        F  0.09902708  0.72120919  0.38908133    -0.13400
C870        C  0.11737696  0.78093182  0.38433540     0.16400
C871        C  0.12142006  0.79628700  0.38860975     0.25800
C872        C  0.11061970  0.80870038  0.38674494    -0.40500
C873        C  0.09549340  0.80520443  0.38096029     0.32700
C874        C  0.09137412  0.78979567  0.37701480     0.14400
F875        F  0.12834511  0.76943457  0.38565414    -0.12900
F876        F  0.08475065  0.81672189  0.37855827    -0.13400
F877        F  0.13588637  0.79889787  0.39476007    -0.15700
F878        F  0.07657830  0.78686530  0.37184467    -0.14200
F879        F  0.10548634  0.75085072  0.39855119    -0.14200
F880        F  0.08238737  0.74098806  0.33892517    -0.15700
C881        C  0.01957017  0.61734271  0.41642087     0.14400
C882        C  0.01874406  0.60089841  0.41583225     0.01400
C883        C  0.02676248  0.59292639  0.40386097     0.16400
C884        C  0.03567637  0.60127538  0.39275669     0.25800
C885        C  0.03653678  0.61782441  0.39328746    -0.40600
C886        C  0.02824186  0.62572340  0.40526444     0.32800
C887        C  0.00906423  0.59235460  0.42756453     0.01400
F888        F  0.02614022  0.57702601  0.40307872    -0.12900
F889        F  0.02798979  0.64163286  0.40597231    -0.13400
C890        C  0.99454138  0.58584952  0.42321181     0.16400
C891        C  0.98389675  0.58080252  0.43472414     0.25800
C892        C  0.98760653  0.58216029  0.45075038    -0.40500
C893        C  0.00254720  0.58774745  0.45502413     0.32700
C894        C  0.01322417  0.59268955  0.44352043     0.14400
F895        F  0.99005523  0.58581939  0.40792307    -0.12900
F896        F  0.00605141  0.59033926  0.47033919    -0.13400
F897        F  0.96929730  0.57615994  0.43030784    -0.15700
F898        F  0.02715421  0.59900690  0.44801293    -0.14200
F899        F  0.01159362  0.62536096  0.42764894    -0.14200
F900        F  0.04375565  0.59308684  0.38175776    -0.15700
C901        C  0.88517007  0.75061170  0.58421087     0.14400
C902        C  0.87163634  0.75817723  0.58986491     0.01400
C903        C  0.86103807  0.74971872  0.59930226     0.16400
C904        C  0.86407617  0.73405305  0.60324206     0.25800
C905        C  0.87769683  0.72654225  0.59770759    -0.40600
C906        C  0.88814142  0.73491451  0.58803721     0.32800
C907        C  0.86872660  0.77494548  0.58614661     0.01400
F908        F  0.84790693  0.75674085  0.60499286    -0.12900
F909        F  0.90152602  0.72807756  0.58273614    -0.13400
C910        C  0.85486467  0.77955244  0.57847649     0.16400
C911        C  0.85197161  0.79541613  0.57530580     0.25800
C912        C  0.86291220  0.80700413  0.57974481    -0.40500
C913        C  0.87692116  0.80231779  0.58718141     0.32700
C914        C  0.87976255  0.78645457  0.59038998     0.14400
F915        F  0.84420400  0.76863792  0.57386159    -0.12900
F916        F  0.88760988  0.81311317  0.59197332    -0.13400
F917        F  0.83859660  0.79937339  0.56758443    -0.15700
F918        F  0.89310465  0.78236979  0.59811265    -0.14200
F919        F  0.89550478  0.75843770  0.57492650    -0.14200
F920        F  0.85357415  0.72614583  0.61226880    -0.15700
C921        C  0.92672139  0.58562275  0.55376334     0.14400
C922        C  0.93781115  0.59245410  0.54360456     0.01400
C923        C  0.94237670  0.60811277  0.54608268     0.16400
C924        C  0.93562680  0.61695307  0.55811961     0.25800
C925        C  0.92421291  0.61031555  0.56805651    -0.40600
C926        C  0.92006369  0.59444807  0.56599562     0.32800
C927        C  0.94335529  0.58421304  0.52928607     0.01400
F928        F  0.95283952  0.61513194  0.53630016    -0.12900
F929        F  0.90895694  0.58774406  0.57525640    -0.13400
C930        C  0.93269197  0.58120777  0.51706782     0.16400
C931        C  0.93817946  0.57803081  0.50192227     0.25800
C932        C  0.95438961  0.57764392  0.49880619    -0.40500
C933        C  0.96499603  0.57868177  0.51139371     0.32700
C934        C  0.95951760  0.58209654  0.52653162     0.14400
F935        F  0.91703431  0.58315340  0.51937497    -0.12900
F936        F  0.98070637  0.57844275  0.50869603    -0.13400
F937        F  0.92770325  0.57700227  0.48995258    -0.15700
F938        F  0.97005102  0.58473763  0.53819433    -0.14200
F939        F  0.92208007  0.57053882  0.55158119    -0.14200
F940        F  0.94022674  0.63209836  0.55998493    -0.15700
C941        C  0.08115856  0.40642470  0.75599968     0.14400
C942        C  0.09281843  0.40989091  0.74483988     0.01400
C943        C  0.10737505  0.41565312  0.74997236     0.16400
C944        C  0.11044491  0.41750331  0.76597897     0.25800
C945        C  0.09899857  0.41359168  0.77728203    -0.40600
C946        C  0.08420963  0.40825594  0.77209373     0.32800
C947        C  0.09033743  0.40659811  0.72791482     0.01400
F948        F  0.11870226  0.41942871  0.73940322    -0.12900
F949        F  0.07296389  0.40406616  0.78257982    -0.13400
C950        C  0.07911208  0.41488830  0.71911424     0.16400
C951        C  0.07721940  0.41188319  0.70302360     0.25800
C952        C  0.08651212  0.40045285  0.69543616    -0.40500
C953        C  0.09789221  0.39234042  0.70436474     0.32700
C954        C  0.09967629  0.39531773  0.72039367     0.14400
F955        F  0.07011176  0.42604041  0.72607189    -0.12900
F956        F  0.10766366  0.38175081  0.69758852    -0.13400
F957        F  0.06603517  0.41993692  0.69502721    -0.15700
F958        F  0.11053419  0.38705903  0.72866500    -0.14200
F959        F  0.06706056  0.40062512  0.75133985    -0.14200
F960        F  0.12462294  0.42331177  0.77035746    -0.15700
C961        C  0.06913644  0.46938276  0.92084399     0.14400
C962        C  0.05344919  0.46481903  0.92310754     0.01400
C963        C  0.04701256  0.45314666  0.91340850     0.16400
C964        C  0.05623186  0.44606123  0.90168509     0.25800
C965        C  0.07211914  0.45035974  0.89971491    -0.40600
C966        C  0.07836076  0.46225746  0.90931817     0.32800
C967        C  0.04467573  0.47146511  0.93660380     0.01400
F968        F  0.03190362  0.44848605  0.91544753    -0.12900
F969        F  0.09342229  0.46714835  0.90749658    -0.13400
C970        C  0.04157207  0.48767684  0.93726207     0.16400
C971        C  0.03842734  0.49493266  0.95168331     0.25800
C972        C  0.03861005  0.48607898  0.96559343    -0.40500
C973        C  0.03983680  0.46965374  0.96465838     0.32700
C974        C  0.04271138  0.46236423  0.95022360     0.14400
F975        F  0.04317578  0.49667533  0.92419940    -0.12900
F976        F  0.04002270  0.46087487  0.97796925    -0.13400
F977        F  0.03732261  0.51082085  0.95231401    -0.15700
F978        F  0.04547589  0.44667189  0.94988062    -0.14200
F979        F  0.07572849  0.48042782  0.93025231    -0.14200
F980        F  0.04981720  0.43455555  0.89274067    -0.15700
C981        C  0.08135227  0.62348026  0.21238917     0.14400
C982        C  0.09275301  0.62333157  0.22433657     0.01400
C983        C  0.10800994  0.61820953  0.22067861     0.16400
C984        C  0.11189018  0.61357252  0.20539939     0.25800
C985        C  0.10059796  0.61397981  0.19327054    -0.40600
C986        C  0.08522021  0.61891004  0.19703190     0.32800
C987        C  0.08898254  0.62883622  0.24052752     0.01400
F988        F  0.11918862  0.61748854  0.23202548    -0.12900
F989        F  0.07400078  0.61992263  0.18577103    -0.13400
C990        C  0.07694066  0.62179328  0.24937362     0.16400
C991        C  0.07389513  0.62667790  0.26481912     0.25800
C992        C  0.08296982  0.63862007  0.27187416    -0.40500
C993        C  0.09491297  0.64575048  0.26284534     0.32700
C994        C  0.09777164  0.64099514  0.24737810     0.14400
F995        F  0.06832891  0.60990489  0.24318018    -0.12900
F996        F  0.10426966  0.65703548  0.26905093    -0.13400
F997        F  0.06186755  0.61983579  0.27271857    -0.15700
F998        F  0.10920278  0.64834342  0.23902979    -0.14200
F999        F  0.06655811  0.62856115  0.21546309    -0.14200
F1000       F  0.12669095  0.60835175  0.20266157    -0.15700
C1001       C  0.04193978  0.52682062  0.04010860     0.14400
C1002       C  0.04832986  0.54182923  0.03758467     0.01400
C1003       C  0.04972274  0.54747634  0.02216019     0.16400
C1004       C  0.04619926  0.53770587  0.00942367     0.25800
C1005       C  0.04092862  0.52224617  0.01190831    -0.40600
C1006       C  0.03819538  0.51712075  0.02735339     0.32800
C1007       C  0.05655816  0.55006878  0.05052218     0.01400
F1008       F  0.05619948  0.56178358  0.01941369    -0.12900
F1009       F  0.03374793  0.50206013  0.03010327    -0.13400
C1010       C  0.07126925  0.54445868  0.05543142     0.16400
C1011       C  0.07988464  0.55248193  0.06683256     0.25800
C1012       C  0.07393127  0.56625013  0.07368989    -0.40500
C1013       C  0.05902402  0.57173118  0.06906193     0.32700
C1014       C  0.05045761  0.56376798  0.05740103     0.14400
F1015       F  0.07750857  0.53137874  0.04880458    -0.12900
F1016       F  0.05309195  0.58512423  0.07531729    -0.13400
F1017       F  0.09409255  0.54673119  0.07123983    -0.15700
F1018       F  0.03635406  0.56950183  0.05267322    -0.14200
F1019       F  0.04072947  0.52104242  0.05491549    -0.14200
F1020       F  0.04981253  0.54266063  0.99470944    -0.15700
C1021       C  0.95920362  0.50512349  0.97000438     0.14400
C1022       C  0.96756875  0.51335958  0.98163175     0.01400
C1023       C  0.95925577  0.52321362  0.99195559     0.16400
C1024       C  0.94287202  0.52441073  0.99097193     0.25800
C1025       C  0.93452224  0.51579948  0.97967612    -0.40600
C1026       C  0.94282462  0.50632912  0.96905988     0.32800
C1027       C  0.98481153  0.51112114  0.98344411     0.01400
F1028       F  0.96694464  0.53121426  0.00338270    -0.12900
F1029       F  0.93496880  0.49765350  0.95827198    -0.13400
C1030       C  0.99515193  0.52400285  0.98290390     0.16400
C1031       C  0.01136713  0.52180069  0.98479466     0.25800
C1032       C  0.01752987  0.50671311  0.98734522    -0.40500
C1033       C  0.00718855  0.49385044  0.98790211     0.32700
C1034       C  0.99101068  0.49601646  0.98596036     0.14400
F1035       F  0.98957953  0.53867840  0.98013172    -0.12900
F1036       F  0.01276861  0.47917519  0.99061855    -0.13400
F1037       F  0.02108424  0.53432432  0.98351092    -0.15700
F1038       F  0.98134236  0.48336822  0.98686362    -0.14200
F1039       F  0.96689840  0.49576644  0.95966078    -0.14200
F1040       F  0.93508713  0.53387236  0.00113643    -0.15700
C1041       C  0.88709999  0.64618631  0.71810783     0.14400
C1042       C  0.87846872  0.63283582  0.72253871     0.01400
C1043       C  0.87391575  0.62204126  0.71090370     0.16400
C1044       C  0.87764477  0.62473339  0.69508136     0.25800
C1045       C  0.88588837  0.63833809  0.69060916    -0.40600
C1046       C  0.89074492  0.64892937  0.70231518     0.32800
C1047       C  0.87395682  0.63038637  0.73923662     0.01400
F1048       F  0.86532924  0.60918734  0.71480423    -0.12900
F1049       F  0.89920546  0.66188911  0.69847935    -0.13400
C1050       C  0.86435142  0.64134541  0.74697041     0.16400
C1051       C  0.85997952  0.63903508  0.76266898     0.25800
C1052       C  0.86515037  0.62569233  0.77102034    -0.40500
C1053       C  0.87492653  0.61482019  0.76325914     0.32700
C1054       C  0.87922858  0.61713444  0.74753516     0.14400
F1055       F  0.85898291  0.65420712  0.73921053    -0.12900
F1056       F  0.87996707  0.60165539  0.77069260    -0.13400
F1057       F  0.85092484  0.65005854  0.76975468    -0.15700
F1058       F  0.88867778  0.60646284  0.74041826    -0.14200
F1059       F  0.89207072  0.65655659  0.72912676    -0.14200
F1060       F  0.87250365  0.61444356  0.68406952    -0.15700
C1061       C  0.88156439  0.54999923  0.90898065     0.14400
C1062       C  0.89771686  0.55217499  0.91164647     0.01400
C1063       C  0.90591251  0.56323853  0.90253650     0.16400
C1064       C  0.89803784  0.57204938  0.89101373     0.25800
C1065       C  0.88178719  0.57008390  0.88859004    -0.40600
C1066       C  0.87369894  0.55881622  0.89759614     0.32800
C1067       C  0.90549020  0.54334204  0.92454210     0.01400
F1068       F  0.92150426  0.56557103  0.90487900    -0.12900
F1069       F  0.85813587  0.55619039  0.89532208    -0.13400
C1070       C  0.90487577  0.52684967  0.92474412     0.16400
C1071       C  0.90803020  0.51859017  0.93858415     0.25800
C1072       C  0.91199119  0.52666571  0.95238482    -0.40500
C1073       C  0.91438773  0.54296727  0.95172592     0.32700
C1074       C  0.91111485  0.55128697  0.93788123     0.14400
F1075       F  0.89983717  0.51885745  0.91192021    -0.12900
F1076       F  0.91788743  0.55103734  0.96500304    -0.13400
F1077       F  0.90550792  0.50285449  0.93899497    -0.15700
F1078       F  0.91173504  0.56721072  0.93806192    -0.14200
F1079       F  0.87324478  0.53962374  0.91779636    -0.14200
F1080       F  0.90617517  0.58294180  0.88269744    -0.15700
C1081       C  0.86528490  0.40357612  0.24818689     0.14400
C1082       C  0.87382330  0.41559045  0.24077454     0.01400
C1083       C  0.88596711  0.42303197  0.24912249     0.16400
C1084       C  0.88971472  0.41829899  0.26447605     0.25800
C1085       C  0.88130214  0.40605751  0.27185232    -0.40600
C1086       C  0.86888086  0.39893775  0.26352197     0.32800
C1087       C  0.87026551  0.41981272  0.22417761     0.01400
F1088       F  0.89418274  0.43493727  0.24241154    -0.12900
F1089       F  0.85992931  0.38759394  0.27023493    -0.13400
C1090       C  0.85497464  0.42422649  0.21976262     0.16400
C1091       C  0.85108153  0.42623863  0.20391847     0.25800
C1092       C  0.86239391  0.42384964  0.19209502    -0.40500
C1093       C  0.87793059  0.42030937  0.19658527     0.32700
C1094       C  0.88180038  0.41826179  0.21246320     0.14400
F1095       F  0.84371596  0.42639993  0.23083273    -0.12900
F1096       F  0.88921912  0.41791904  0.18560390    -0.13400
F1097       F  0.83621008  0.43059778  0.20017340    -0.15700
F1098       F  0.89664309  0.41389453  0.21632192    -0.14200
F1099       F  0.85360694  0.39601365  0.24040750    -0.14200
F1100       F  0.90189708  0.42541103  0.27186852    -0.15700
C1101       C  0.91753478  0.48090523  0.02173209     0.14400
C1102       C  0.90873005  0.48675218  0.03443736     0.01400
C1103       C  0.90375115  0.50248392  0.03411491     0.16400
C1104       C  0.90577107  0.51151096  0.02056456     0.25800
C1105       C  0.91263867  0.50493310  0.00710244    -0.40600
C1106       C  0.91945193  0.48994718  0.00809120     0.32800
C1107       C  0.90219064  0.47593037  0.04647419     0.01400
F1108       F  0.89529003  0.50854097  0.04617896    -0.12900
F1109       F  0.92624405  0.48335049  0.99529032    -0.13400
C1110       C  0.90417314  0.47884507  0.06257772     0.16400
C1111       C  0.89596511  0.46994957  0.07374848     0.25800
C1112       C  0.88553255  0.45799499  0.06900978    -0.40500
C1113       C  0.88403114  0.45474180  0.05288616     0.32700
C1114       C  0.89222321  0.46363513  0.04176232     0.14400
F1115       F  0.91371058  0.49063411  0.06747225    -0.12900
F1116       F  0.87450573  0.44302055  0.04781338    -0.13400
F1117       F  0.89757847  0.47368582  0.08913764    -0.15700
F1118       F  0.88972711  0.46077916  0.02628410    -0.14200
F1119       F  0.92305111  0.46595458  0.02203325    -0.14200
F1120       F  0.89938460  0.52610981  0.01994148    -0.15700
C1121       C  0.24718249  0.61657856  0.07693972     0.14400
C1122       C  0.23877288  0.62454071  0.08866404     0.01400
C1123       C  0.24605577  0.63696681  0.09669417     0.16400
C1124       C  0.26156798  0.64121557  0.09325107     0.25800
C1125       C  0.27016431  0.63302612  0.08174731    -0.40600
C1126       C  0.26273825  0.62073748  0.07354238     0.32800
C1127       C  0.22257208  0.61966380  0.09289228     0.01400
F1128       F  0.23809517  0.64500619  0.10791126    -0.12900
F1129       F  0.27042778  0.61289240  0.06201501    -0.13400
C1130       C  0.21932423  0.61415686  0.10808509     0.16400
C1131       C  0.20401376  0.61003161  0.11239352     0.25800
C1132       C  0.19153420  0.61142466  0.10160895    -0.40500
C1133       C  0.19488436  0.61668727  0.08625865     0.32700
C1134       C  0.21027234  0.62070221  0.08194550     0.14400
F1135       F  0.23108562  0.61257386  0.11873323    -0.12900
F1136       F  0.18322375  0.61854813  0.07555841    -0.13400
F1137       F  0.20152302  0.60431908  0.12705714    -0.15700
F1138       F  0.21309443  0.62605911  0.06719756    -0.14200
F1139       F  0.24043202  0.60453114  0.06900190    -0.14200
F1140       F  0.26830692  0.65299683  0.10158199    -0.15700
C1141       C  0.41438841  0.56036240  0.00141611     0.14400
C1142       C  0.41439202  0.56119884  0.01787383     0.01400
C1143       C  0.41946463  0.54813875  0.02659578     0.16400
C1144       C  0.42274327  0.53390379  0.01901829     0.25800
C1145       C  0.42091442  0.53258150  0.00267383    -0.40600
C1146       C  0.41734728  0.54609870  0.99388651     0.32800
C1147       C  0.40548591  0.57391154  0.02570932     0.01400
F1148       F  0.41931576  0.54860008  0.04252048    -0.12900
F1149       F  0.41445032  0.54499497  0.97826127    -0.13400
C1150       C  0.38915160  0.57460249  0.02353779     0.16400
C1151       C  0.38017244  0.58598881  0.03112404     0.25800
C1152       C  0.38731947  0.59702086  0.04111868    -0.40500
C1153       C  0.40374969  0.59639818  0.04324698     0.32700
C1154       C  0.41275093  0.58483528  0.03567099     0.14400
F1155       F  0.38181283  0.56399403  0.01417728    -0.12900
F1156       F  0.41104207  0.60667889  0.05297874    -0.13400
F1157       F  0.36448729  0.58639233  0.02831854    -0.15700
F1158       F  0.42850950  0.58430939  0.03801953    -0.14200
F1159       F  0.40964166  0.57288838  0.99275576    -0.14200
F1160       F  0.42551261  0.52088896  0.02781142    -0.15700
C1161       C  0.25219366  0.41089423  0.87324436     0.14400
C1162       C  0.24046075  0.39975951  0.87675307     0.01400
C1163       C  0.24503084  0.38531257  0.88337186     0.16400
C1164       C  0.26090863  0.38202798  0.88629744     0.25800
C1165       C  0.27267642  0.39306406  0.88258154    -0.40600
C1166       C  0.26810185  0.40758751  0.87611119     0.32800
C1167       C  0.22354225  0.40307033  0.87329342     0.01400
F1168       F  0.23412697  0.37416288  0.88668890    -0.12900
F1169       F  0.27905563  0.41843480  0.87205795    -0.13400
C1170       C  0.21875867  0.40743597  0.85809507     0.16400
C1171       C  0.20289085  0.41036605  0.85475005     0.25800
C1172       C  0.19129226  0.40885200  0.86649402    -0.40500
C1173       C  0.19611253  0.40447447  0.88171984     0.32700
C1174       C  0.21202255  0.40167466  0.88507342     0.14400
F1175       F  0.22944652  0.40857378  0.84632353    -0.12900
F1176       F  0.18540842  0.40244711  0.89334194    -0.13400
F1177       F  0.19900007  0.41499881  0.84001181    -0.15700
F1178       F  0.21618724  0.39771346  0.89993995    -0.14200
F1179       F  0.24824681  0.42506859  0.86709925    -0.14200
F1180       F  0.26471223  0.36808835  0.89303665    -0.15700
C1181       C  0.40029465  0.45106351  0.92939276     0.14400
C1182       C  0.41115450  0.44543509  0.94046651     0.01400
C1183       C  0.41408777  0.42923358  0.94130466     0.16400
C1184       C  0.40544683  0.41873445  0.93205366     0.25800
C1185       C  0.39368218  0.42430627  0.92175833    -0.40600
C1186       C  0.39171200  0.44063537  0.92009387     0.32800
C1187       C  0.41694943  0.45618796  0.95285124     0.01400
F1188       F  0.42472779  0.42353228  0.95172968    -0.12900
F1189       F  0.38114304  0.44658337  0.90975372    -0.13400
C1190       C  0.41171997  0.45396002  0.96832136     0.16400
C1191       C  0.41313822  0.46598906  0.97932015     0.25800
C1192       C  0.41966621  0.48055140  0.97504585    -0.40500
C1193       C  0.42632564  0.48224524  0.96002016     0.32700
C1194       C  0.42502200  0.47008247  0.94900480     0.14400
F1195       F  0.40367707  0.44078442  0.97233897    -0.12900
F1196       F  0.43249279  0.49618265  0.95538847    -0.13400
F1197       F  0.40678788  0.46391542  0.99379664    -0.15700
F1198       F  0.43052499  0.47232956  0.93421931    -0.14200
F1199       F  0.39709986  0.46665185  0.92840702    -0.14200
F1200       F  0.40789149  0.40312489  0.93408540    -0.15700
C1201       C  0.46584670  0.51893712  0.97533836     0.14400
C1202       C  0.47525451  0.50673322  0.98126629     0.01400
C1203       C  0.46815845  0.49469404  0.99008203     0.16400
C1204       C  0.45191590  0.49483516  0.99278224     0.25800
C1205       C  0.44249802  0.50697206  0.98670298    -0.40600
C1206       C  0.44963055  0.51903039  0.97799426     0.32800
C1207       C  0.49236034  0.50646492  0.97784171     0.01400
F1208       F  0.47688525  0.48258236  0.99569132    -0.12900
F1209       F  0.44082071  0.53048142  0.97136127    -0.13400
C1210       C  0.50346568  0.50697574  0.99006052     0.16400
C1211       C  0.51958813  0.50714061  0.98668504     0.25800
C1212       C  0.52484177  0.50666620  0.97106747    -0.40500
C1213       C  0.51374191  0.50616815  0.95887854     0.32700
C1214       C  0.49766092  0.50605111  0.96221881     0.14400
F1215       F  0.49867801  0.50753913  0.00524302    -0.12900
F1216       F  0.51854102  0.50517691  0.94372481    -0.13400
F1217       F  0.53006878  0.50796097  0.99863240    -0.15700
F1218       F  0.48723582  0.50509234  0.95019713    -0.14200
F1219       F  0.47239607  0.53075505  0.96686737    -0.14200
F1220       F  0.44531406  0.48309503  0.00130837    -0.15700
C1221       C  0.74858215  0.38971583  0.10224692     0.14400
C1222       C  0.73873793  0.40116840  0.09549208     0.01400
C1223       C  0.74485884  0.41627226  0.09267992     0.16400
C1224       C  0.76056579  0.41972193  0.09614785     0.25800
C1225       C  0.77036763  0.40827902  0.10289558    -0.40600
C1226       C  0.76420142  0.39329098  0.10604786     0.32800
C1227       C  0.72233002  0.39723672  0.09081264     0.01400
F1228       F  0.73554444  0.42777779  0.08674367    -0.12900
F1229       F  0.77349419  0.38190631  0.11223867    -0.13400
C1230       C  0.71170459  0.39064751  0.10163325     0.16400
C1231       C  0.69640746  0.38666762  0.09699313     0.25800
C1232       C  0.69135269  0.38936249  0.08147272    -0.40500
C1233       C  0.70195731  0.39607620  0.07071922     0.32700
C1234       C  0.71727047  0.39987792  0.07531331     0.14400
F1235       F  0.71604481  0.38830531  0.11679065    -0.12900
F1236       F  0.69775613  0.39837774  0.05552532    -0.13400
F1237       F  0.68643847  0.38052056  0.10781040    -0.15700
F1238       F  0.72734793  0.40571069  0.06442295    -0.14200
F1239       F  0.74323398  0.37489730  0.10469097    -0.14200
F1240       F  0.76609321  0.43439612  0.09327417    -0.15700
C1241       C  0.57751485  0.43714756  0.00141410     0.14400
C1242       C  0.56225336  0.43991204  0.00697873     0.01400
C1243       C  0.55612220  0.43036509  0.01892189     0.16400
C1244       C  0.56531407  0.41826583  0.02536412     0.25800
C1245       C  0.58081868  0.41579277  0.02007763    -0.40600
C1246       C  0.58675742  0.42530495  0.00796059     0.32800
C1247       C  0.55367150  0.45366469  0.00082589     0.01400
F1248       F  0.54149052  0.43306727  0.02463316    -0.12900
F1249       F  0.60152550  0.42311054  0.00237506    -0.13400
C1250       C  0.54455653  0.45230778  0.98714235     0.16400
C1251       C  0.54146228  0.46561474  0.97793977     0.25800
C1252       C  0.54751330  0.48027800  0.98236698    -0.40500
C1253       C  0.55512865  0.48183437  0.99689382     0.32700
C1254       C  0.55805255  0.46861715  0.00614684     0.14400
F1255       F  0.54014597  0.43794334  0.98186337    -0.12900
F1256       F  0.56140251  0.49584300  0.00119062    -0.13400
F1257       F  0.53412219  0.46392905  0.96390008    -0.15700
F1258       F  0.56683997  0.47014426  0.01935611    -0.14200
F1259       F  0.58358867  0.44625268  0.98980394    -0.14200
F1260       F  0.55936254  0.40952338  0.03728926    -0.15700
C1261       C  0.71995943  0.65354197  0.88197660     0.14400
C1262       C  0.72380609  0.63895036  0.87535687     0.01400
C1263       C  0.71201969  0.62757073  0.87358782     0.16400
C1264       C  0.69661605  0.63069215  0.87835212     0.25800
C1265       C  0.69268333  0.64528093  0.88508046    -0.40600
C1266       C  0.70455343  0.65670117  0.88678765     0.32800
C1267       C  0.74010533  0.63552311  0.87031912     0.01400
F1268       F  0.71548872  0.61331516  0.86737738    -0.12900
F1269       F  0.70139267  0.67081695  0.89344495    -0.13400
C1270       C  0.75237656  0.63530560  0.88132132     0.16400
C1271       C  0.76770730  0.63168365  0.87663982     0.25800
C1272       C  0.77107811  0.62825502  0.86080686    -0.40500
C1273       C  0.75872794  0.62853349  0.84980631     0.32700
C1274       C  0.74340313  0.63213399  0.85453335     0.14400
F1275       F  0.74945130  0.63835483  0.89668312    -0.12900
F1276       F  0.76134266  0.62484987  0.83453976    -0.13400
F1277       F  0.77927557  0.63186289  0.88759675    -0.15700
F1278       F  0.73174690  0.63239089  0.84366061    -0.14200
F1279       F  0.73111983  0.66480630  0.88363090    -0.14200
F1280       F  0.68550196  0.61953635  0.87594879    -0.15700
C1281       C  0.55050797  0.55103557  0.93353970     0.14400
C1282       C  0.55418710  0.56201533  0.94530490     0.01400
C1283       C  0.55269490  0.55753325  0.96114797     0.16400
C1284       C  0.54907252  0.54197617  0.96510961     0.25800
C1285       C  0.54687576  0.53070748  0.95329387    -0.40600
C1286       C  0.54692279  0.53549840  0.93752275     0.32800
C1287       C  0.56185523  0.57711098  0.94099374     0.01400
F1288       F  0.55591779  0.56793928  0.97276655    -0.12900
F1289       F  0.54494538  0.52476507  0.92592634    -0.13400
C1290       C  0.55474805  0.58763037  0.93041621     0.16400
C1291       C  0.56300830  0.60076982  0.92486452     0.25800
C1292       C  0.57854354  0.60359981  0.92979485    -0.40500
C1293       C  0.58535155  0.59343269  0.94090847     0.32700
C1294       C  0.57715208  0.58030106  0.94635870     0.14400
F1295       F  0.53992709  0.58496788  0.92518543    -0.12900
F1296       F  0.60003984  0.59613415  0.94648818    -0.13400
F1297       F  0.55609020  0.61022158  0.91405097    -0.15700
F1298       F  0.58451316  0.57024478  0.95631700    -0.14200
F1299       F  0.55197210  0.55490857  0.91814834    -0.14200
F1300       F  0.54956855  0.53752895  0.98041157    -0.15700
C1301       C  0.72292008  0.10869161  0.37303250     0.14400
C1302       C  0.72971474  0.12334101  0.36946491     0.01400
C1303       C  0.72021047  0.13502852  0.36262453     0.16400
C1304       C  0.70444491  0.13199894  0.35902848     0.25800
C1305       C  0.69768854  0.11730634  0.36246199    -0.40600
C1306       C  0.70705428  0.10575647  0.36971070     0.32800
C1307       C  0.74668112  0.12642216  0.37269557     0.01400
F1308       F  0.72613192  0.14952436  0.35961556    -0.12900
F1309       F  0.70107633  0.09134787  0.37297638    -0.13400
C1310       C  0.75656407  0.13226090  0.36078334     0.16400
C1311       C  0.77227636  0.13595637  0.36397855     0.25800
C1312       C  0.77858960  0.13351274  0.37903734    -0.40500
C1313       C  0.76894432  0.12706842  0.39078430     0.32700
C1314       C  0.75309182  0.12377374  0.38771805     0.14400
F1315       F  0.75102823  0.13429331  0.34597315    -0.12900
F1316       F  0.77464605  0.12471311  0.40547617    -0.13400
F1317       F  0.78140904  0.14175079  0.35226295    -0.15700
F1318       F  0.74385148  0.11859544  0.39962956    -0.14200
F1319       F  0.73178521  0.09698943  0.37925516    -0.14200
F1320       F  0.69569347  0.14360918  0.35247661    -0.15700
C1321       C  0.53413595  0.03263449  0.41070637     0.14400
C1322       C  0.53912245  0.04797292  0.40705848     0.01400
C1323       C  0.52832754  0.06038780  0.40846134     0.16400
C1324       C  0.51260739  0.05738560  0.41209988     0.25800
C1325       C  0.50726453  0.04190787  0.41421783    -0.40600
C1326       C  0.51830037  0.02959992  0.41417220     0.32800
C1327       C  0.55467796  0.05091798  0.39962595     0.01400
F1328       F  0.53264121  0.07530748  0.40485383    -0.12900
F1329       F  0.51355197  0.01448805  0.41580868    -0.13400
C1330       C  0.55844595  0.04358004  0.38532018     0.16400
C1331       C  0.57156430  0.04839666  0.37665407     0.25800
C1332       C  0.58123504  0.06061667  0.38211900    -0.40500
C1333       C  0.57801319  0.06730929  0.39687097     0.32700
C1334       C  0.56484548  0.06251744  0.40552189     0.14400
F1335       F  0.54884812  0.03242278  0.37920446    -0.12900
F1336       F  0.58694701  0.07925868  0.40244667    -0.13400
F1337       F  0.57460786  0.04132555  0.36271074    -0.15700
F1338       F  0.56166067  0.06965815  0.41939414    -0.14200
F1339       F  0.54440851  0.02046780  0.40993211    -0.14200
F1340       F  0.50228754  0.06953924  0.41228511    -0.15700
C1341       C  0.24904836  0.91684210  0.35333160     0.14400
C1342       C  0.24597548  0.91579475  0.36949595     0.01400
C1343       C  0.25832681  0.91829480  0.38014399     0.16400
C1344       C  0.27349795  0.92170975  0.37472376     0.25800
C1345       C  0.27664050  0.92272035  0.35849574    -0.40600
C1346       C  0.26416007  0.92031327  0.34787966     0.32800
C1347       C  0.22991337  0.91185544  0.37510478     0.01400
F1348       F  0.25567686  0.91751596  0.39583647    -0.12900
F1349       F  0.26642532  0.92158717  0.33216694    -0.13400
C1350       C  0.22724421  0.89822796  0.38403541     0.16400
C1351       C  0.21194656  0.89390543  0.38830277     0.25800
C1352       C  0.19899278  0.90318268  0.38379461    -0.40500
C1353       C  0.20175311  0.91705926  0.37522545     0.32700
C1354       C  0.21704982  0.92133222  0.37092912     0.14400
F1355       F  0.23942880  0.88883636  0.38824326    -0.12900
F1356       F  0.18960829  0.92618848  0.37040455    -0.13400
F1357       F  0.20985163  0.88069402  0.39698049    -0.15700
F1358       F  0.21931413  0.93472725  0.36257523    -0.14200
F1359       F  0.23741265  0.91420925  0.34275769    -0.14200
F1360       F  0.28516265  0.92354067  0.38541424    -0.15700
C1361       C  0.42112064  0.98508790  0.37696870     0.14400
C1362       C  0.42104451  0.98418154  0.39344640     0.01400
C1363       C  0.40909614  0.97564311  0.40095765     0.16400
C1364       C  0.39750369  0.96798862  0.39210648     0.25800
C1365       C  0.39768107  0.96876376  0.37557944    -0.40600
C1366       C  0.40962174  0.97744493  0.36813221     0.32800
C1367       C  0.43334628  0.99256406  0.40250187     0.01400
F1368       F  0.40884003  0.97446599  0.41684093    -0.12900
F1369       F  0.40993354  0.97900382  0.35227704    -0.13400
C1370       C  0.42938316  0.00531137  0.41220928     0.16400
C1371       C  0.44108788  0.01563831  0.41747108     0.25800
C1372       C  0.45686470  0.01316259  0.41331190    -0.40500
C1373       C  0.46093041  0.99955077  0.40497413     0.32700
C1374       C  0.44927227  0.98933505  0.39960870     0.14400
F1375       F  0.41409502  0.00862844  0.41528650    -0.12900
F1376       F  0.47599545  0.99722189  0.40029883    -0.13400
F1377       F  0.43688610  0.02881528  0.42536801    -0.15700
F1378       F  0.45342894  0.97698286  0.39044959    -0.14200
F1379       F  0.43218708  0.99373802  0.36940343    -0.14200
F1380       F  0.38641071  0.95943037  0.39970386    -0.15700
C1381       C  0.47258492  0.00101709  0.49105406     0.14400
C1382       C  0.48424983  0.01140664  0.48576474     0.01400
C1383       C  0.49454149  0.01811924  0.49678821     0.16400
C1384       C  0.49322452  0.01443745  0.51281223     0.25800
C1385       C  0.48158669  0.00396158  0.51812960    -0.40600
C1386       C  0.47126950  0.99733517  0.50702569     0.32800
C1387       C  0.48510378  0.01570351  0.46884855     0.01400
F1388       F  0.50590294  0.02823537  0.49200978    -0.12900
F1389       F  0.45997201  0.98708951  0.51164861    -0.13400
C1390       C  0.48202627  0.03119553  0.46406099     0.16400
C1391       C  0.48144550  0.03502174  0.44809114     0.25800
C1392       C  0.48395390  0.02347559  0.43659072    -0.40500
C1393       C  0.48729659  0.00804198  0.44131431     0.32700
C1394       C  0.48795896  0.00419515  0.45733352     0.14400
F1395       F  0.47886323  0.04247387  0.47485019    -0.12900
F1396       F  0.48975604  0.99670029  0.43044188    -0.13400
F1397       F  0.47771537  0.04990117  0.44375325    -0.15700
F1398       F  0.49126694  0.98920691  0.46163726    -0.14200
F1399       F  0.46221971  0.99467520  0.48074261    -0.14200
F1400       F  0.50298265  0.02156371  0.52310228    -0.15700
C1401       C  0.25688294  0.13333800  0.59560081     0.14400
C1402       C  0.24935157  0.12508022  0.58350579     0.01400
C1403       C  0.25706338  0.11226335  0.57659070     0.16400
C1404       C  0.27200068  0.10767528  0.58178162     0.25800
C1405       C  0.27960551  0.11588347  0.59399460    -0.40600
C1406       C  0.27182058  0.12884192  0.60078396     0.32800
C1407       C  0.23321221  0.12954825  0.57861117     0.01400
F1408       F  0.25011258  0.10417751  0.56475855    -0.12900
F1409       F  0.27867641  0.13742845  0.61229699    -0.13400
C1410       C  0.23012188  0.14460448  0.57260561     0.16400
C1411       C  0.21470317  0.14923650  0.56919126     0.25800
C1412       C  0.20202828  0.13888532  0.57172321    -0.40500
C1413       C  0.20523584  0.12364521  0.57734112     0.32700
C1414       C  0.22067252  0.11903849  0.58072175     0.14400
F1415       F  0.24208512  0.15482307  0.57000210    -0.12900
F1416       F  0.19339205  0.11340458  0.58030635    -0.13400
F1417       F  0.21223609  0.16379610  0.56318467    -0.15700
F1418       F  0.22332055  0.10448549  0.58668156    -0.14200
F1419       F  0.24959138  0.14562278  0.60265992    -0.14200
F1420       F  0.27873123  0.09487669  0.57512648    -0.15700
C1421       C  0.41539288  0.03680714  0.57475024     0.14400
C1422       C  0.41488482  0.03700346  0.55829439     0.01400
C1423       C  0.40377028  0.04646492  0.55067697     0.16400
C1424       C  0.39346585  0.05588634  0.55943070     0.25800
C1425       C  0.39418048  0.05602165  0.57599736    -0.40600
C1426       C  0.40517660  0.04618316  0.58352298     0.32800
C1427       C  0.42655183  0.02772622  0.54937520     0.01400
F1428       F  0.40302768  0.04669327  0.53476733    -0.12900
F1429       F  0.40592905  0.04536637  0.59941066    -0.13400
C1430       C  0.42463669  0.01145160  0.54777006     0.16400
C1431       C  0.43733019  0.00207143  0.54320311     0.25800
C1432       C  0.45217213  0.00882109  0.54039308    -0.40500
C1433       C  0.45359076  0.02526335  0.54038366     0.32700
C1434       C  0.44084884  0.03465302  0.54491655     0.14400
F1435       F  0.41089655  0.00452711  0.55196132    -0.12900
F1436       F  0.46778973  0.03211335  0.53803182    -0.13400
F1437       F  0.43559813  0.98622104  0.54313262    -0.15700
F1438       F  0.44293701  0.05036679  0.54652482    -0.14200
F1439       F  0.42600471  0.02762782  0.58234366    -0.14200
F1440       F  0.38321021  0.06526669  0.55163341    -0.15700
C1441       C  0.74921385  0.89605124  0.58344449     0.14400
C1442       C  0.74559204  0.90946085  0.59231678     0.01400
C1443       C  0.75787753  0.91926585  0.59739851     0.16400
C1444       C  0.77352763  0.91556719  0.59385550     0.25800
C1445       C  0.77715011  0.90189873  0.58532655    -0.40600
C1446       C  0.76480548  0.89226128  0.58005614     0.32800
C1447       C  0.72902131  0.91287055  0.59654611     0.01400
F1448       F  0.75476044  0.93212409  0.60626457    -0.12900
F1449       F  0.76777615  0.87928257  0.57131862    -0.13400
C1450       C  0.72005853  0.90156737  0.60457168     0.16400
C1451       C  0.70433114  0.90446446  0.60825136     0.25800
C1452       C  0.69722034  0.91881567  0.60411451    -0.40500
C1453       C  0.70620305  0.93014853  0.59607907     0.32700
C1454       C  0.72196430  0.92719725  0.59234268     0.14400
F1455       F  0.72660478  0.88771252  0.60900310    -0.12900
F1456       F  0.69988420  0.94425367  0.59218700    -0.13400
F1457       F  0.69597342  0.89301276  0.61554560    -0.15700
F1458       F  0.73028051  0.93825196  0.58441156    -0.14200
F1459       F  0.73758660  0.88665007  0.57792048    -0.14200
F1460       F  0.78514324  0.92498777  0.59935360    -0.15700
C1461       C  0.55272367  0.98199557  0.57857326     0.14400
C1462       C  0.55241764  0.97905070  0.56231064     0.01400
C1463       C  0.56491430  0.97061424  0.55557524     0.16400
C1464       C  0.57720300  0.96486607  0.56494766     0.25800
C1465       C  0.57728174  0.96746758  0.58128041    -0.40600
C1466       C  0.56502407  0.97636938  0.58790767     0.32800
C1467       C  0.53840980  0.98372946  0.55286031     0.01400
F1468       F  0.56510619  0.96771489  0.53991859    -0.12900
F1469       F  0.56485382  0.97963637  0.60349716    -0.13400
C1470       C  0.53244954  0.99911186  0.55377334     0.16400
C1471       C  0.51721002  0.00247086  0.54857882     0.25800
C1472       C  0.50791626  0.99072509  0.54162805    -0.40500
C1473       C  0.51455637  0.97584225  0.53909578     0.32700
C1474       C  0.52959420  0.97230019  0.54480133     0.14400
F1475       F  0.54084589  0.01056550  0.56100065    -0.12900
F1476       F  0.50564151  0.96412873  0.53299196    -0.13400
F1477       F  0.51079906  0.01657082  0.55233222    -0.15700
F1478       F  0.53474033  0.95723796  0.54400784    -0.14200
F1479       F  0.54071337  0.98975872  0.58562064    -0.14200
F1480       F  0.58859145  0.95609367  0.55809849    -0.15700
C1481       C  0.38442798  0.73865014  0.08628870     0.14400
C1482       C  0.37440419  0.75126952  0.08280734     0.01400
C1483       C  0.35999374  0.74837503  0.07535584     0.16400
C1484       C  0.35546647  0.73303438  0.07178348     0.25800
C1485       C  0.36527910  0.72030120  0.07563958    -0.40600
C1486       C  0.37992101  0.72327326  0.08272632     0.32800
C1487       C  0.37863797  0.76739359  0.08753887     0.01400
F1488       F  0.35029878  0.76045279  0.07154394    -0.12900
F1489       F  0.38954820  0.71128416  0.08693366    -0.13400
C1490       C  0.39204378  0.77473789  0.08136786     0.16400
C1491       C  0.39595715  0.79002443  0.08590853     0.25800
C1492       C  0.38648015  0.79821466  0.09669020    -0.40500
C1493       C  0.37304478  0.79075658  0.10284799     0.32700
C1494       C  0.36920571  0.77548995  0.09832984     0.14400
F1495       F  0.40122303  0.76715775  0.07078184    -0.12900
F1496       F  0.36329953  0.79834659  0.11290087    -0.13400
F1497       F  0.40919926  0.79664715  0.08000689    -0.15700
F1498       F  0.35628937  0.76853238  0.10459237    -0.14200
F1499       F  0.39830175  0.74118156  0.09372605    -0.14200
F1500       F  0.34155217  0.73067197  0.06437508    -0.15700
C1501       C  0.36612140  0.88736461  0.21000630     0.14400
C1502       C  0.37534976  0.89898825  0.21716771     0.01400
C1503       C  0.38745782  0.90617409  0.20856934     0.16400
C1504       C  0.39016567  0.90191534  0.19294926     0.25800
C1505       C  0.38084395  0.89033820  0.18573755    -0.40600
C1506       C  0.36884452  0.88305745  0.19444522     0.32800
C1507       C  0.37201185  0.90377219  0.23349797     0.01400
F1508       F  0.39647882  0.91749806  0.21522365    -0.12900
F1509       F  0.35943002  0.87206873  0.18777853    -0.13400
C1510       C  0.38335344  0.90187374  0.24531988     0.16400
C1511       C  0.37983160  0.90581513  0.26087017     0.25800
C1512       C  0.36488752  0.91169851  0.26482083    -0.40500
C1513       C  0.35363693  0.91374371  0.25289006     0.32700
C1514       C  0.35719457  0.90985359  0.23738351     0.14400
F1515       F  0.39767217  0.89576565  0.24186933    -0.12900
F1516       F  0.33930177  0.91991058  0.25612277    -0.13400
F1517       F  0.39084312  0.90332807  0.27212392    -0.15700
F1518       F  0.34620381  0.91219708  0.22606946    -0.14200
F1519       F  0.35447685  0.88012422  0.21815025    -0.14200
F1520       F  0.40213362  0.90885001  0.18501966    -0.15700
C1521       C  0.45309606  0.97176542  0.05860259     0.14400
C1522       C  0.45410776  0.95738181  0.05055891     0.01400
C1523       C  0.46525645  0.95579456  0.03841308     0.16400
C1524       C  0.47601283  0.96789477  0.03530721     0.25800
C1525       C  0.47540376  0.98187096  0.04395661    -0.40600
C1526       C  0.46352387  0.98390968  0.05519425     0.32800
C1527       C  0.44469620  0.94372805  0.05607902     0.01400
F1528       F  0.46617299  0.94226687  0.03006035    -0.12900
F1529       F  0.46282381  0.99734048  0.06374444    -0.13400
C1530       C  0.42844561  0.94523557  0.05877330     0.16400
C1531       C  0.42011962  0.93325987  0.06631954     0.25800
C1532       C  0.42772874  0.91932986  0.07076052    -0.40500
C1533       C  0.44373871  0.91741080  0.06736429     0.32700
C1534       C  0.45222297  0.92960243  0.06032580     0.14400
F1535       F  0.42069524  0.95848441  0.05445047    -0.12900
F1536       F  0.45141842  0.90419163  0.07190602    -0.13400
F1537       F  0.40462541  0.93532699  0.06947552    -0.15700
F1538       F  0.46799792  0.92798380  0.05865632    -0.14200
F1539       F  0.44290936  0.97365293  0.07071528    -0.14200
F1540       F  0.48760853  0.96558888  0.02463076    -0.15700
C1541       C  0.60314663  0.24092296  0.09174167     0.14400
C1542       C  0.59089466  0.25025541  0.08579020     0.01400
C1543       C  0.57589945  0.24360688  0.08392209     0.16400
C1544       C  0.57315234  0.22794327  0.08819139     0.25800
C1545       C  0.58534778  0.21871764  0.09446672    -0.40600
C1546       C  0.60039097  0.22531981  0.09609464     0.32800
C1547       C  0.59377858  0.26701206  0.08196492     0.01400
F1548       F  0.56380517  0.25244070  0.07844834    -0.12900
F1549       F  0.61251433  0.21655709  0.10162380    -0.13400
C1550       C  0.59223303  0.27257609  0.06650084     0.16400
C1551       C  0.59575240  0.28825847  0.06287291     0.25800
C1552       C  0.60092843  0.29860381  0.07466278    -0.40500
C1553       C  0.60216206  0.29305626  0.09017884     0.32700
C1554       C  0.59858193  0.27743657  0.09378950     0.14400
F1555       F  0.58786328  0.26266609  0.05482539    -0.12900
F1556       F  0.60660504  0.30283693  0.10193507    -0.13400
F1557       F  0.59480673  0.29311335  0.04772310    -0.15700
F1558       F  0.59972684  0.27247121  0.10889669    -0.14200
F1559       F  0.61784567  0.24692456  0.09321041    -0.14200
F1560       F  0.55841844  0.22200711  0.08683458    -0.15700
C1561       C  0.60730998  0.13328284  0.24710985     0.14400
C1562       C  0.60049193  0.12161407  0.23761500     0.01400
C1563       C  0.59823075  0.10651909  0.24393533     0.16400
C1564       C  0.60253265  0.10320749  0.25944422     0.25800
C1565       C  0.60942053  0.11485886  0.26893357    -0.40600
C1566       C  0.61189306  0.12990139  0.26252345     0.32800
C1567       C  0.59597644  0.12514937  0.22110423     0.01400
F1568       F  0.59222365  0.09481072  0.23495778    -0.12900
F1569       F  0.61830899  0.14153897  0.27129619    -0.13400
C1570       C  0.60687677  0.13205995  0.21078683     0.16400
C1571       C  0.60260389  0.13577777  0.19538631     0.25800
C1572       C  0.58744836  0.13231766  0.18981273    -0.40500
C1573       C  0.57661807  0.12509906  0.19999169     0.32700
C1574       C  0.58078127  0.12171370  0.21553987     0.14400
F1575       F  0.62182879  0.13493342  0.21551806    -0.12900
F1576       F  0.56180454  0.12183707  0.19508448    -0.13400
F1577       F  0.61349656  0.14235180  0.18578032    -0.15700
F1578       F  0.56980598  0.11546588  0.22527555    -0.14200
F1579       F  0.60922801  0.14811622  0.24157293    -0.14200
F1580       F  0.60043634  0.08839992  0.26495855    -0.15700
C1581       C  0.52971282  0.08723918  0.05206296     0.14400
C1582       C  0.51933576  0.07637964  0.05886284     0.01400
C1583       C  0.51476193  0.07838445  0.07457358     0.16400
C1584       C  0.52094897  0.09067608  0.08353291     0.25800
C1585       C  0.53188119  0.10121960  0.07696107    -0.40600
C1586       C  0.53586181  0.09961941  0.06098109     0.32800
C1587       C  0.51504391  0.06174187  0.05050439     0.01400
F1588       F  0.50497984  0.06787258  0.08152048    -0.12900
F1589       F  0.54644592  0.10941457  0.05420009    -0.13400
C1590       C  0.52666313  0.05035303  0.04791625     0.16400
C1591       C  0.52247582  0.03515346  0.04348318     0.25800
C1592       C  0.50658716  0.03100981  0.04169212    -0.40500
C1593       C  0.49506866  0.04280494  0.04263024     0.32700
C1594       C  0.49927975  0.05809485  0.04713555     0.14400
F1595       F  0.54193566  0.05349443  0.05126414    -0.12900
F1596       F  0.47964480  0.03916329  0.04091098    -0.13400
F1597       F  0.53383914  0.02400609  0.04250266    -0.15700
F1598       F  0.48789314  0.06903781  0.04927416    -0.14200
F1599       F  0.53435183  0.08547045  0.03692796    -0.14200
F1600       F  0.51635450  0.09212383  0.09871758    -0.15700
C1601       C  0.49103054  0.01545616  0.99257158     0.14400
C1602       C  0.47585045  0.01076737  0.98797009     0.01400
C1603       C  0.46528144  0.00588310  0.99975321     0.16400
C1604       C  0.46975006  0.00575639  0.01558377     0.25800
C1605       C  0.48535024  0.00904190  0.02001208    -0.40600
C1606       C  0.49589209  0.01402464  0.00822541     0.32800
C1607       C  0.47118711  0.01051254  0.97098672     0.01400
F1608       F  0.45070385  0.00065750  0.99597300    -0.12900
F1609       F  0.51118110  0.01688699  0.01164932    -0.13400
C1610       C  0.48117852  0.00398485  0.95951667     0.16400
C1611       C  0.47655891  0.00320600  0.94374052     0.25800
C1612       C  0.46136030  0.00782708  0.93909812    -0.40500
C1613       C  0.45143827  0.01450382  0.95058710     0.32700
C1614       C  0.45647908  0.01630033  0.96612401     0.14400
F1615       F  0.49528879  0.99777974  0.96359067    -0.12900
F1616       F  0.43649704  0.01873908  0.94702154    -0.13400
F1617       F  0.48717047  0.99809772  0.93311002    -0.15700
F1618       F  0.44680728  0.02362205  0.97645156    -0.14200
F1619       F  0.50130530  0.02133121  0.98188903    -0.14200
F1620       F  0.45863885  0.00260519  0.02650821    -0.15700
C1621       C  0.57489100  0.78432403  0.88432591     0.14400
C1622       C  0.57792271  0.77248553  0.87328781     0.01400
C1623       C  0.57673604  0.77597017  0.85723243     0.16400
C1624       C  0.57283990  0.79113845  0.85226187     0.25800
C1625       C  0.57014774  0.80318336  0.86328661    -0.40600
C1626       C  0.57105700  0.79953214  0.87940252     0.32800
C1627       C  0.58305536  0.75671105  0.87850975     0.01400
F1628       F  0.57977069  0.76475703  0.84633487    -0.12900
F1629       F  0.56883696  0.81076771  0.89045372    -0.13400
C1630       C  0.57397274  0.74334931  0.87521459     0.16400
C1631       C  0.57914098  0.72842396  0.87984147     0.25800
C1632       C  0.59357459  0.72661637  0.88773633    -0.40500
C1633       C  0.60251922  0.74009580  0.89118381     0.32700
C1634       C  0.59730905  0.75496880  0.88659536     0.14400
F1635       F  0.56009206  0.74477705  0.86749907    -0.12900
F1636       F  0.61623979  0.73895424  0.89921632    -0.13400
F1637       F  0.57027681  0.71573369  0.87608256    -0.15700
F1638       F  0.60637662  0.76769424  0.88974874    -0.14200
F1639       F  0.57576110  0.78114804  0.89992117    -0.14200
F1640       F  0.57152156  0.79391914  0.83663185    -0.15700
C1641       C  0.58770181  0.91108374  0.75128743     0.14400
C1642       C  0.58789092  0.89935239  0.73972897     0.01400
C1643       C  0.58316085  0.88407120  0.74364154     0.16400
C1644       C  0.57860452  0.88045211  0.75899020     0.25800
C1645       C  0.57857670  0.89212121  0.77069653    -0.40600
C1646       C  0.58301758  0.90752968  0.76664152     0.32800
C1647       C  0.59336259  0.90293737  0.72365543     0.01400
F1648       F  0.58320591  0.87258163  0.73261370    -0.12900
F1649       F  0.58332584  0.91904925  0.77762757    -0.13400
C1650       C  0.60925547  0.90629619  0.72087858     0.16400
C1651       C  0.61453200  0.90959665  0.70567060     0.25800
C1652       C  0.60392249  0.90974280  0.69297381    -0.40500
C1653       C  0.58801081  0.90615709  0.69581725     0.32700
C1654       C  0.58280331  0.90275934  0.71101973     0.14400
F1655       F  0.61968237  0.90628777  0.73293660    -0.12900
F1656       F  0.57750993  0.90561799  0.68384429    -0.13400
F1657       F  0.62992240  0.91312774  0.70351050    -0.15700
F1658       F  0.56739213  0.89946438  0.71345476    -0.14200
F1659       F  0.59204681  0.92599115  0.74766417    -0.14200
F1660       F  0.57391460  0.86558049  0.76228639    -0.15700
C1661       C  0.49340329  0.94020038  0.87949376     0.14400
C1662       C  0.49537802  0.94172890  0.89579456     0.01400
C1663       C  0.50557618  0.93144816  0.90368209     0.16400
C1664       C  0.51415122  0.92018846  0.89526974     0.25800
C1665       C  0.51262813  0.91907179  0.87883626    -0.40600
C1666       C  0.50194850  0.92902038  0.87109102     0.32800
C1667       C  0.48713210  0.95452876  0.90418659     0.01400
F1668       F  0.50766930  0.93271676  0.91942015    -0.12900
F1669       F  0.49960892  0.92781329  0.85537742    -0.13400
C1670       C  0.47506106  0.95124202  0.91496750     0.16400
C1671       C  0.46533072  0.96335819  0.92043910     0.25800
C1672       C  0.46769873  0.97886775  0.91534777    -0.40500
C1673       C  0.48037675  0.98221018  0.90530846     0.32700
C1674       C  0.49011214  0.97018021  0.89993447     0.14400
F1675       F  0.47189979  0.93619257  0.91916112    -0.12900
F1676       F  0.48256875  0.99700661  0.89975691    -0.13400
F1677       F  0.45283731  0.95980960  0.92967671    -0.15700
F1678       F  0.50187957  0.97366393  0.88974941    -0.14200
F1679       F  0.48315885  0.94962203  0.87169345    -0.14200
F1680       F  0.52449015  0.91092152  0.90310287    -0.15700
C1681       C  0.38758856  0.28620293  0.87416201     0.14400
C1682       C  0.37672901  0.27386042  0.87478391     0.01400
C1683       C  0.36126614  0.27685352  0.87957341     0.16400
C1684       C  0.35659329  0.29206990  0.88345350     0.25800
C1685       C  0.36728231  0.30465687  0.88237155    -0.40600
C1686       C  0.38292438  0.30149846  0.87786631     0.32800
C1687       C  0.38118172  0.25797520  0.86959853     0.01400
F1688       F  0.35065751  0.26497781  0.88042026    -0.12900
F1689       F  0.39358078  0.31323749  0.87630562    -0.13400
C1690       C  0.39176046  0.24886559  0.87832299     0.16400
C1691       C  0.39537549  0.23354776  0.87360049     0.25800
C1692       C  0.38827667  0.22701828  0.86012335    -0.40500
C1693       C  0.37779740  0.23643912  0.85133746     0.32700
C1694       C  0.37443487  0.25175914  0.85598444     0.14400
F1695       F  0.39836572  0.25472732  0.89158053    -0.12900
F1696       F  0.37028010  0.23082183  0.83849157    -0.13400
F1697       F  0.40598938  0.22529444  0.88214511    -0.15700
F1698       F  0.36445848  0.26057449  0.84718915    -0.14200
F1699       F  0.40254638  0.28352985  0.86932697    -0.14200
F1700       F  0.34164061  0.29437722  0.88844986    -0.15700
C1701       C  0.38677475  0.14687088  0.73789046     0.14400
C1702       C  0.37825663  0.13318087  0.73442096     0.01400
C1703       C  0.37299147  0.12356989  0.74675795     0.16400
C1704       C  0.37651962  0.12738440  0.76232426     0.25800
C1705       C  0.38527721  0.14091793  0.76579267    -0.40600
C1706       C  0.39021433  0.15075410  0.75347504     0.32800
C1707       C  0.37505359  0.12880418  0.71792568     0.01400
F1708       F  0.36424702  0.11060091  0.74371417    -0.12900
F1709       F  0.39884645  0.16380901  0.75649033    -0.13400
C1710       C  0.38173447  0.11516941  0.71152037     0.16400
C1711       C  0.37870160  0.11096072  0.69592982     0.25800
C1712       C  0.36876192  0.12025226  0.68651395    -0.40500
C1713       C  0.36223264  0.13402235  0.69296104     0.32700
C1714       C  0.36536640  0.13824555  0.70851406     0.14400
F1715       F  0.39124086  0.10594121  0.72040105    -0.12900
F1716       F  0.35299401  0.14357184  0.68414849    -0.13400
F1717       F  0.38505725  0.09750151  0.69026904    -0.15700
F1718       F  0.35870310  0.15142405  0.71450209    -0.14200
F1719       F  0.39210016  0.15624356  0.72613908    -0.14200
F1720       F  0.37103127  0.11808287  0.77405631    -0.15700
C1721       C  0.44421629  0.07954054  0.88373132     0.14400
C1722       C  0.43906096  0.07810341  0.89931970     0.01400
C1723       C  0.43054908  0.09045581  0.90612434     0.16400
C1724       C  0.42646427  0.10367360  0.89720526     0.25800
C1725       C  0.43079918  0.10471431  0.88126312    -0.40600
C1726       C  0.44018491  0.09272200  0.87480399     0.32800
C1727       C  0.44058973  0.06280485  0.90745864     0.01400
F1728       F  0.42562420  0.08938569  0.92123980    -0.12900
F1729       F  0.44524755  0.09356164  0.85972079    -0.13400
C1730       C  0.45542122  0.05619318  0.91046381     0.16400
C1731       C  0.45673091  0.04037604  0.91486345     0.25800
C1732       C  0.44320587  0.03097695  0.91616226    -0.40500
C1733       C  0.42834817  0.03800803  0.91444167     0.32700
C1734       C  0.42705616  0.05377072  0.91011884     0.14400
F1735       F  0.46864708  0.06479124  0.90816889    -0.12900
F1736       F  0.41506671  0.02929118  0.91585547    -0.13400
F1737       F  0.47123558  0.03391637  0.91627734    -0.15700
F1738       F  0.41260063  0.05982016  0.90713234    -0.14200
F1739       F  0.45233748  0.06769316  0.87682405    -0.14200
F1740       F  0.41738954  0.11489186  0.90393344    -0.15700
loop_ 
_geom_bond_atom_site_label_1 
_geom_bond_atom_site_label_2 
_geom_bond_distance 
_geom_bond_site_symmetry_2 
_ccdc_geom_bond_type 
N1            N2   1.320       .  A
N1            C5   1.344       .  A
N1           Cu9   2.057       .  S
N2            C3   1.345       .  A
N2           Cu8   2.078       .  S
C3            C4   1.386       .  A
C3            H6   1.081       .  S
C4            C5   1.382       .  A
C4         C1705   1.476       .  S
C5            H7   1.082       .  S
Cu8          N11   2.079       .  S
Cu9          N19   2.057       .  S
Cu10         N12   2.083       .  S
Cu10         N18   2.082       .  S
N11          N12   1.323       .  A
N11          C15   1.343       .  A
N12          C13   1.347       .  A
C13          C14   1.388       .  A
C13          H16   1.081       .  S
C14          C15   1.386       .  A
C14        C1725   1.487       .  S
C15          H17   1.081       .  S
N18          N19   1.320       .  A
N18          C22   1.347       .  A
N19          C20   1.339       .  A
C20          C21   1.385       .  A
C20          H23   1.079       .  S
C21          C22   1.393       .  A
C21        C1692   1.490       .  S
C22          H24   1.080       .  S
N25          N26   1.321       .  A
N25          C29   1.343       .  A
N25         Cu33   2.069       .  S
N26          C27   1.347       .  A
N26         Cu32   2.078       .  S
C27          C28   1.387       .  A
C27          H30   1.081       .  S
C28          C29   1.385       .  A
C28        C1645   1.483       .  S
C29          H31   1.082       .  S
Cu32         N35   2.079       .  S
Cu33         N43   2.069       .  S
Cu34         N36   2.080       .  S
Cu34         N42   2.080       .  S
N35          N36   1.323       .  A
N35          C39   1.344       .  A
N36          C37   1.347       .  A
C37          C38   1.386       .  A
C37          H40   1.081       .  S
C38          C39   1.385       .  A
C38        C1665   1.483       .  S
C39          H41   1.081       .  S
N42          N43   1.321       .  A
N42          C46   1.346       .  A
N43          C44   1.343       .  A
C44          C45   1.386       .  A
C44          H47   1.081       .  S
C45          C46   1.389       .  A
C45        C1625   1.487       .  S
C46          H48   1.081       .  S
N49          C53   1.365   1_545  A
N49          C50   1.363       .  A
N49        C1612   1.456       .  S
C50          C51   1.381       .  A
C50        C1732   1.483       .  S
C51          C52   1.366   1_545  A
C51          H54   1.082       .  S
C52          C53   1.381       .  A
C52          H55   1.083       .  S
C53        C1672   1.475       .  S
N56          N57   1.322       .  A
N56          C60   1.344       .  A
N56         Cu64   2.073       .  S
N57          C58   1.347       .  A
N57         Cu63   2.078       .  S
C58          C59   1.386       .  A
C58          H61   1.080       .  S
C59          C60   1.385       .  A
C59        C1572   1.481       .  S
C60          H62   1.080       .  S
Cu63         N66   2.079       .  S
Cu64         N74   2.073       .  S
Cu65         N67   2.083       .  S
Cu65         N73   2.083       .  S
N66          N67   1.322       .  A
N66          C70   1.345       .  A
N67          C68   1.347       .  A
C68          C69   1.388       .  A
C68          H71   1.081       .  S
C69          C70   1.387       .  A
C69        C1585   1.488       .  S
C70          H72   1.081       .  S
N73          N74   1.322       .  A
N73          C77   1.347       .  A
N74          C75   1.345       .  A
C75          C76   1.384       .  A
C75          H78   1.082       .  S
C76          C77   1.385       .  A
C76        C1545   1.480       .  S
C77          H79   1.082       .  S
N80          N81   1.320       .  A
N80          C84   1.342       .  A
N80         Cu88   2.060       .  S
N81          C82   1.344       .  A
N81         Cu87   2.067       .  S
C82          C83   1.385       .  A
C82          H85   1.081       .  S
C83          C84   1.384       .  A
C83        C1505   1.477       .  S
C84          H86   1.082       .  S
Cu87         N90   2.067       .  S
Cu88         N98   2.061       .  S
Cu89         N91   2.080       .  S
Cu89         N97   2.079       .  S
N90          N91   1.323       .  A
N90          C94   1.342       .  A
N91          C92   1.347       .  A
C92          C93   1.384       .  A
C92          H95   1.082       .  S
C93          C94   1.380       .  A
C93        C1532   1.473       .  S
C94          H96   1.082       .  S
N97          N98   1.321       .  A
N97         C101   1.346       .  A
N98          C99   1.341       .  A
C99         C100   1.383       .  A
C99         H102   1.081       .  S
C100        C101   1.388       .  A
C100       C1492   1.481       .  S
C101        H103   1.082       .  S
N104        C108   1.366   1_545  A
N104        C105   1.364       .  A
N104       C1605   1.455       .  S
C105        C106   1.382       .  A
C105       C1592   1.482       .  S
C106        C107   1.363   1_545  A
C106        H109   1.083       .  S
C107        C108   1.379       .  A
C107        H110   1.083       .  S
C108       C1525   1.474       .  S
N111        N112   1.320       .  A
N111        C115   1.346       .  A
N111       Cu119   2.072       .  S
N112        C113   1.343       .  A
N112       Cu118   2.072       .  S
C113        C114   1.386       .  A
C113        H116   1.081       .  S
C114        C115   1.388       .  A
C114       C1652   1.485       .  S
C115        H117   1.081       .  S
Cu118       N121   2.073       .  S
Cu119       N129   2.073       .  S
Cu120       N122   2.092       .  S
Cu120       N128   2.092       .  S
N121        N122   1.322       .  A
N121        C125   1.344       .  A
N122        C123   1.349       .  A
C123        C124   1.391       .  A
C123        H126   1.080       .  S
C124        C125   1.386       .  A
C124       C1465   1.490       .  S
C125        H127   1.080       .  S
N128        N129   1.323       .  A
N128        C132   1.349       .  A
N129        C130   1.343       .  A
C130        C131   1.383       .  A
C130        H133   1.082       .  S
C131        C132   1.389       .  A
C131       C1452   1.485       .  S
C132        H134   1.081       .  S
N135        N136   1.321       .  A
N135        C139   1.343       .  A
N135       Cu143   2.070       .  S
N136        C137   1.348       .  A
N136       Cu142   2.087       .  S
C137        C138   1.390       .  A
C137        H140   1.080       .  S
C138        C139   1.384       .  A
C138       C1712   1.486       .  S
C139        H141   1.081       .  S
Cu142       N145   2.088       .  S
Cu143       N153   2.070       .  S
Cu144       N146   2.083       .  S
Cu144       N152   2.083       .  S
N145        N146   1.323       .  A
N145        C149   1.345       .  A
N146        C147   1.347       .  A
C147        C148   1.388       .  A
C147        H150   1.081       .  S
C148        C149   1.389       .  A
C148       C1425   1.491       .  S
C149        H151   1.081       .  S
N152        N153   1.320       .  A
N152        C156   1.346       .  A
N153        C154   1.344       .  A
C154        C155   1.389       .  A
C154        H157   1.081       .  S
C155        C156   1.391       .  A
C155       C1405   1.493       .  S
C156        H158   1.081       .  S
N159        C163   1.364       .  A
N159        C160   1.364       .  A
N159       C1385   1.450   1_565  S
C160        C161   1.380       .  A
C160       C1472   1.477       .  S
C161        C162   1.365       .  A
C161        H164   1.083       .  S
C162        C163   1.382       .  A
C162        H165   1.082       .  S
C163       C1432   1.482   1_565  S
N166        N167   1.321       .  A
N166        C170   1.344       .  A
N166       Cu174   2.073       .  S
N167        C168   1.345       .  A
N167       Cu173   2.068       .  S
C168        C169   1.385       .  A
C168        H171   1.081       .  S
C169        C170   1.386       .  A
C169       C1512   1.480       .  S
C170        H172   1.081       .  S
Cu173       N176   2.070       .  S
Cu174       N184   2.074       .  S
Cu175       N177   2.086       .  S
Cu175       N183   2.086       .  S
N176        N177   1.322       .  A
N176        C180   1.343       .  A
N177        C178   1.347       .  A
C178        C179   1.388       .  A
C178        H181   1.081       .  S
C179        C180   1.385       .  A
C179       C1365   1.485       .  S
C180        H182   1.080       .  S
N183        N184   1.321       .  A
N183        C187   1.347       .  A
N184        C185   1.344       .  A
C185        C186   1.388       .  A
C185        H188   1.081       .  S
C186        C187   1.390       .  A
C186       C1345   1.491       .  S
C187        H189   1.081       .  S
N190        N191   1.321       .  A
N190        C194   1.346       .  A
N190       Cu198   2.078       .  S
N191        C192   1.345       .  A
N191       Cu197   2.076       .  S
C192        C193   1.387       .  A
C192        H195   1.079       .  S
C193        C194   1.388       .  A
C193       C1565   1.486       .  S
C194        H196   1.080       .  S
Cu197       N200   2.076       .  S
Cu198       N208   2.078       .  S
Cu199       N201   2.089       .  S
Cu199       N207   2.089       .  S
N200        N201   1.322       .  A
N200        C204   1.345       .  A
N201        C202   1.348       .  A
C202        C203   1.388       .  A
C202        H205   1.081       .  S
C203        C204   1.385       .  A
C203       C1332   1.485       .  S
C204        H206   1.081       .  S
N207        N208   1.323       .  A
N207        C211   1.348       .  A
N208        C209   1.345       .  A
C209        C210   1.386       .  A
C209        H212   1.082       .  S
C210        C211   1.389       .  A
C210       C1305   1.488       .  S
C211        H213   1.081       .  S
N214        C218   1.360       .  A
N214        C215   1.359       .  A
N214       C1392   1.441       .  S
C215        C216   1.380       .  A
C215       C1372   1.475       .  S
C216        C217   1.369       .  A
C216        H219   1.082       .  S
C217        C218   1.383       .  A
C217        H220   1.082       .  S
C218       C1325   1.485       .  S
N221        N222   1.320       .  A
N221        C225   1.345       .  A
N221       Cu229   2.069       .  S
N222        C223   1.345       .  A
N222       Cu228   2.076       .  S
C223        C224   1.389       .  A
C223        H226   1.082       .  S
C224        C225   1.387       .  A
C224       C1265   1.487       .  S
C225        H227   1.082       .  S
Cu228       N231   2.077       .  S
Cu229       N239   2.070       .  S
Cu230       N232   2.085       .  S
Cu230       N238   2.085       .  S
N231        N232   1.323       .  A
N231        C235   1.344       .  A
N232        C233   1.349       .  A
C233        C234   1.388       .  A
C233        H236   1.080       .  S
C234        C235   1.385       .  A
C234       C1292   1.485       .  S
C235        H237   1.080       .  S
N238        N239   1.322       .  A
N238        C242   1.348       .  A
N239        C240   1.343       .  A
C240        C241   1.384       .  A
C240        H243   1.081       .  S
C241        C242   1.389       .  A
C241       C1632   1.485       .  S
C242        H244   1.081       .  S
N245        N246   1.321       .  A
N245        C249   1.346       .  A
N245       Cu253   2.075       .  S
N246        C247   1.347       .  A
N246       Cu252   2.081       .  S
C247        C248   1.389       .  A
C247        H250   1.080       .  S
C248        C249   1.386       .  A
C248       C1232   1.487       .  S
C249        H251   1.081       .  S
Cu252       N255   2.081       .  S
Cu253       N263   2.075       .  S
Cu254       N256   2.086       .  S
Cu254       N262   2.086       .  S
N255        N256   1.323       .  A
N255        C259   1.345       .  A
N256        C257   1.348       .  A
C257        C258   1.386       .  A
C257        H260   1.080       .  S
C258        C259   1.385       .  A
C258       C1245   1.482       .  S
C259        H261   1.081       .  S
N262        N263   1.322       .  A
N262        C266   1.349       .  A
N263        C264   1.344       .  A
C264        C265   1.384       .  A
C264        H267   1.081       .  S
C265        C266   1.388       .  A
C265       C1552   1.484       .  S
C266        H268   1.081       .  S
N269        C273   1.355       .  A
N269        C270   1.358       .  A
N269       C1212   1.440       .  S
C270        C271   1.382       .  A
C270       C1285   1.476       .  S
C271        C272   1.371       .  A
C271        H274   1.082       .  S
C272        C273   1.380       .  A
C272        H275   1.082       .  S
C273       C1252   1.472       .  S
N276        N277   1.322       .  A
N276        C280   1.345       .  A
N276       Cu284   2.079       .  S
N277        C278   1.350       .  A
N277       Cu283   2.098       .  S
C278        C279   1.392       .  A
C278        H281   1.081       .  S
C279        C280   1.387       .  A
C279       C1165   1.493       .  S
C280        H282   1.082       .  S
Cu283       N286   2.098       .  S
Cu284       N294   2.078       .  S
Cu285       N287   2.060       .  S
Cu285       N293   2.060       .  S
N286        N287   1.322       .  A
N286        C290   1.346       .  A
N287        C288   1.344       .  A
C288        C289   1.385       .  A
C288        H291   1.080       .  S
C289        C290   1.392       .  A
C289       C1185   1.489       .  S
C290        H292   1.081       .  S
N293        N294   1.320       .  A
N293        C297   1.343       .  A
N294        C295   1.344       .  A
C295        C296   1.389       .  A
C295        H298   1.080       .  S
C296        C297   1.385       .  A
C296       C1685   1.484       .  S
C297        H299   1.080       .  S
N300        N301   1.321       .  A
N300        C304   1.346       .  A
N300       Cu308   2.072       .  S
N301        C302   1.346       .  A
N301       Cu307   2.082       .  S
C302        C303   1.388       .  A
C302        H305   1.081       .  S
C303        C304   1.387       .  A
C303       C1125   1.487       .  S
C304        H306   1.082       .  S
Cu307       N310   2.082       .  S
Cu308       N318   2.072       .  S
Cu309       N311   2.074       .  S
Cu309       N317   2.074       .  S
N310        N311   1.322       .  A
N310        C314   1.344       .  A
N311        C312   1.347       .  A
C312        C313   1.387       .  A
C312        H315   1.081       .  S
C313        C314   1.388       .  A
C313       C1152   1.486       .  S
C314        H316   1.081       .  S
N317        N318   1.323       .  A
N317        C321   1.345       .  A
N318        C319   1.343       .  A
C319        C320   1.384       .  A
C319        H322   1.081       .  S
C320        C321   1.385       .  A
C320       C1485   1.479       .  S
C321        H323   1.081       .  S
N324        C328   1.361       .  A
N324        C325   1.360       .  A
N324       C1205   1.443       .  S
C325        C326   1.379       .  A
C325       C1145   1.475   1_556  S
C326        C327   1.368       .  A
C326        H329   1.082   1_556  S
C327        C328   1.383       .  A
C327        H330   1.082       .  S
C328       C1192   1.483       .  S
N331        N332   1.323       .  A
N331        C335   1.347       .  A
N331       Cu339   2.083       .  S
N332        C333   1.347       .  A
N332       Cu338   2.084       .  S
C333        C334   1.386       .  A
C333        H336   1.080       .  S
C334        C335   1.385       .  A
C334       C1225   1.482       .  S
C335        H337   1.081       .  S
Cu338       N341   2.085       .  S
Cu339       N349   2.084       .  S
Cu340       N342   2.081       .  S
Cu340       N348   2.082       .  S
N341        N342   1.322       .  A
N341        C345   1.346       .  A
N342        C343   1.346       .  A
C343        C344   1.387       .  A
C343        H346   1.080       .  S
C344        C345   1.388       .  A
C344       C1112   1.488       .  S
C345        H347   1.081       .  S
N348        N349   1.322       .  A
N348        C352   1.348       .  A
N349        C350   1.345       .  A
C350        C351   1.388       .  A
C350        H353   1.080       .  S
C351        C352   1.389       .  A
C351       C1092   1.490       .  S
C352        H354   1.080       .  S
N355        N356   1.320       .  A
N355        C359   1.347       .  A
N355       Cu363   2.084       .  S
N356        C357   1.344       .  A
N356       Cu362   2.065       .  S
C357        C358   1.385       .  A
C357        H360   1.081       .  S
C358        C359   1.389       .  A
C358       C1272   1.486       .  S
C359        H361   1.081       .  S
Cu362       N365   2.066       .  S
Cu363       N373   2.085       .  S
Cu364       N366   2.095       .  S
Cu364       N372   2.096       .  S
N365        N366   1.322       .  A
N365        C369   1.342       .  A
N366        C367   1.350       .  A
C367        C368   1.390       .  A
C367        H370   1.080       .  S
C368        C369   1.383       .  A
C368       C1065   1.486       .  S
C369        H371   1.081       .  S
N372        N373   1.324       .  A
N372        C376   1.348       .  A
N373        C374   1.347       .  A
C374        C375   1.387       .  A
C374        H377   1.081       .  S
C375        C376   1.390       .  A
C375       C1052   1.493       .  S
C376        H378   1.081       .  S
N379        C383   1.359       .  A
N379        C380   1.359       .  A
N379       C1025   1.440       .  S
C380        C381   1.381       .  A
C380       C1072   1.475       .  S
C381        C382   1.369       .  A
C381        H384   1.082       .  S
C382        C383   1.382       .  A
C382        H385   1.082       .  S
C383       C1105   1.478   1_556  S
N386        N387   1.320       .  A
N386        C390   1.345       .  A
N386       Cu394   2.079       .  S
N387        C388   1.347       .  A
N387       Cu393   2.076       .  S
C388        C389   1.389       .  A
C388        H391   1.081       .  S
C389        C390   1.389       .  A
C389       C1132   1.490       .  S
C390        H392   1.081       .  S
Cu393       N396   2.077       .  S
Cu394       N404   2.080       .  S
Cu395       N397   2.099       .  S
Cu395       N403   2.099       .  S
N396        N397   1.324       .  A
N396        C400   1.343       .  A
N397        C398   1.352       .  A
C398        C399   1.389       .  A
C398        H401   1.080       .  S
C399        C400   1.382       .  A
C399       C1012   1.483       .  S
C400        H402   1.081       .  S
N403        N404   1.322       .  A
N403        C407   1.350       .  A
N404        C405   1.345       .  A
C405        C406   1.388       .  A
C405        H408   1.080       .  S
C406        C407   1.393       .  A
C406        C985   1.497       .  S
C407        H409   1.080       .  S
N410        N411   1.320       .  A
N410        C414   1.345       .  A
N410       Cu418   2.076       .  S
N411        C412   1.350       .  A
N411       Cu417   2.095       .  S
C412        C413   1.394       .  A
C412        H415   1.081       .  S
C413        C414   1.389       .  A
C413       C1172   1.498       .  S
C414        H416   1.081       .  S
Cu417       N420   2.096       .  S
Cu418       N428   2.076       .  S
Cu419       N421   2.091       .  S
Cu419       N427   2.091       .  S
N420        N421   1.325       .  A
N420        C424   1.345       .  A
N421        C422   1.350       .  A
C422        C423   1.388       .  A
C422        H425   1.080       .  S
C423        C424   1.387       .  A
C423        C965   1.489       .  S
C424        H426   1.081       .  S
N427        N428   1.322       .  A
N427        C431   1.350       .  A
N428        C429   1.343       .  A
C429        C430   1.385       .  A
C429        H432   1.081       .  S
C430        C431   1.391       .  A
C430        C945   1.489       .  S
C431        H433   1.081       .  S
N434        C438   1.362       .  A
N434        C435   1.360       .  A
N434       C1032   1.443       .  S
C435        C436   1.381       .  A
C435        C972   1.478       .  S
C436        C437   1.370       .  A
C436        H439   1.082       .  S
C437        C438   1.381       .  A
C437        H440   1.082   1_556  S
C438       C1005   1.478   1_556  S
N441        N442   1.320       .  A
N441        C445   1.345       .  A
N441       Cu449   2.069       .  S
N442        C443   1.345       .  A
N442       Cu448   2.071       .  S
C443        C444   1.385       .  A
C443        H446   1.081       .  S
C444        C445   1.384       .  A
C444        C905   1.478       .  S
C445        H447   1.082       .  S
Cu448       N451   2.072       .  S
Cu449       N459   2.070       .  S
Cu450       N452   2.098       .  S
Cu450       N458   2.098       .  S
N451        N452   1.324       .  A
N451        C455   1.343       .  A
N452        C453   1.351       .  A
C453        C454   1.389       .  A
C453        H456   1.080       .  S
C454        C455   1.383       .  A
C454        C925   1.485       .  S
C455        H457   1.081       .  S
N458        N459   1.323       .  A
N458        C462   1.351       .  A
N459        C460   1.343       .  A
C460        C461   1.382       .  A
C460        H463   1.081       .  S
C461        C462   1.390       .  A
C461       C1045   1.485       .  S
C462        H464   1.081       .  S
N465        N466   1.320       .  A
N465        C469   1.348       .  A
N465       Cu473   2.085       .  S
N466        C467   1.345       .  A
N466       Cu472   2.072       .  S
C467        C468   1.386       .  A
C467        H470   1.081       .  S
C468        C469   1.390       .  A
C468        C865   1.489       .  S
C469        H471   1.081       .  S
Cu472       N475   2.072       .  S
Cu473       N483   2.086       .  S
Cu474       N476   2.098       .  S
Cu474       N482   2.099       .  S
N475        N476   1.322       .  A
N475        C479   1.343       .  A
N476        C477   1.350       .  A
C477        C478   1.394       .  A
C477        H480   1.081       .  S
C478        C479   1.387       .  A
C478        C885   1.496       .  S
C479        H481   1.081       .  S
N482        N483   1.323       .  A
N482        C486   1.349       .  A
N483        C484   1.345       .  A
C484        C485   1.389       .  A
C484        H487   1.080       .  S
C485        C486   1.393       .  A
C485        C992   1.498       .  S
C486        H488   1.080       .  S
N489        C493   1.362       .  A
N489        C490   1.360       .  A
N489        C845   1.443       .  S
C490        C491   1.381       .  A
C490        C932   1.479       .  S
C491        C492   1.368       .  A
C491        H494   1.082       .  S
C492        C493   1.381       .  A
C492        H495   1.082       .  S
C493        C892   1.478       .  S
N496        N497   1.321       .  A
N496        C500   1.347       .  A
N496       Cu504   2.078       .  S
N497        C498   1.345       .  A
N497       Cu503   2.074       .  S
C498        C499   1.385       .  A
C498        H501   1.081       .  S
C499        C500   1.386       .  A
C499        C805   1.482       .  S
C500        H502   1.081       .  S
Cu503       N506   2.075       .  S
Cu504       N514   2.079       .  S
Cu505       N507   2.092       .  S
Cu505       N513   2.092       .  S
N506        N507   1.323       .  A
N506        C510   1.344       .  A
N507        C508   1.348       .  A
C508        C509   1.389       .  A
C508        H511   1.080       .  S
C509        C510   1.386       .  A
C509        C832   1.488       .  S
C510        H512   1.080       .  S
N513        N514   1.322       .  A
N513        C517   1.350       .  A
N514        C515   1.343       .  A
C515        C516   1.388       .  A
C515        H518   1.081       .  S
C516        C517   1.392       .  A
C516       C1085   1.495       .  S
C517        H519   1.081       .  S
N520        N521   1.319       .  A
N520        C524   1.344       .  A
N520       Cu528   2.072       .  S
N521        C522   1.348       .  A
N521       Cu527   2.078       .  S
C522        C523   1.391       .  A
C522        H525   1.081       .  S
C523        C524   1.388       .  A
C523        C772   1.491       .  S
C524        H526   1.081       .  S
Cu527       N530   2.079       .  S
Cu528       N538   2.073       .  S
Cu529       N531   2.094       .  S
Cu529       N537   2.094       .  S
N530        N531   1.323       .  A
N530        C534   1.342       .  A
N531        C532   1.351       .  A
C532        C533   1.392       .  A
C532        H535   1.081       .  S
C533        C534   1.387       .  A
C533        C792   1.494       .  S
C534        H536   1.081       .  S
N537        N538   1.322       .  A
N537        C541   1.350       .  A
N538        C539   1.342       .  A
C539        C540   1.386       .  A
C539        H542   1.081       .  S
C540        C541   1.393       .  A
C540        C952   1.494       .  S
C541        H543   1.081       .  S
N544        C548   1.359       .  A
N544        C545   1.360       .  A
N544        C852   1.443       .  S
C545        C546   1.381       .  A
C545        C785   1.475   1_655  S
C546        C547   1.369       .  A
C546        H549   1.082       .  S
C547        C548   1.381       .  A
C547        H550   1.082       .  S
C548        C825   1.477       .  S
N551        N552   1.319       .  A
N551        C555   1.346       .  A
N551       Cu559   2.078       .  S
N552        C553   1.345       .  A
N552       Cu558   2.072       .  S
C553        C554   1.389       .  A
C553        H556   1.080       .  S
C554        C555   1.390       .  A
C554        C872   1.492       .  S
C555        H557   1.081       .  S
Cu558       N561   2.072       .  S
Cu559       N569   2.079       .  S
Cu560       N562   2.096       .  S
Cu560       N568   2.097       .  S
N561        N562   1.322       .  A
N561        C565   1.341       .  A
N562        C563   1.353       .  A
C563        C564   1.392       .  A
C563        H566   1.080       .  S
C564        C565   1.385       .  A
C564        C752   1.490       .  S
C565        H567   1.080       .  S
N568        N569   1.324       .  A
N568        C572   1.348       .  A
N569        C570   1.345       .  A
C570        C571   1.385       .  A
C570        H573   1.081       .  S
C571        C572   1.389       .  A
C571       C1352   1.488       .  S
C572        H574   1.081       .  S
N575        N576   1.320       .  A
N575        C579   1.344       .  A
N575       Cu583   2.065       .  S
N576        C577   1.347       .  A
N576       Cu582   2.079       .  S
C577        C578   1.389       .  A
C577        H580   1.081       .  S
C578        C579   1.385       .  A
C578        C912   1.485       .  S
C579        H581   1.081       .  S
Cu582       N585   2.080       .  S
Cu583       N593   2.065       .  S
Cu584       N586   2.085       .  S
Cu584       N592   2.085       .  S
N585        N586   1.323       .  A
N585        C589   1.343       .  A
N586        C587   1.349       .  A
C587        C588   1.387       .  A
C587        H590   1.080       .  S
C588        C589   1.385       .  A
C588        C725   1.484       .  S
C589        H591   1.081       .  S
N592        N593   1.322       .  A
N592        C596   1.348       .  A
N593        C594   1.342       .  A
C594        C595   1.383       .  A
C594        H597   1.081       .  S
C595        C596   1.388       .  A
C595       C1445   1.482       .  S
C596        H598   1.081       .  S
N599        C603   1.360       .  A
N599        C600   1.358       .  A
N599        C705   1.440       .  S
C600        C601   1.381       .  A
C600        C732   1.478       .  S
C601        C602   1.372       .  A
C601        H604   1.082       .  S
C602        C603   1.381       .  A
C602        H605   1.082       .  S
C603        C745   1.480   1_655  S
N606        N607   1.322       .  A
N606        C610   1.345       .  A
N606       Cu614   2.079       .  S
N607        C608   1.349       .  A
N607       Cu613   2.087       .  S
C608        C609   1.389       .  A
C608        H611   1.080       .  S
C609        C610   1.386       .  A
C609        C765   1.488       .  S
C610        H612   1.081       .  S
Cu613       N616   2.088       .  S
Cu614       N624   2.080       .  S
Cu615       N617   2.088       .  S
Cu615       N623   2.087       .  S
N616        N617   1.323       .  A
N616        C620   1.345       .  A
N617        C618   1.349       .  A
C618        C619   1.388       .  A
C618        H621   1.081       .  S
C619        C620   1.388       .  A
C619        C692   1.491       .  S
C620        H622   1.081       .  S
N623        N624   1.322       .  A
N623        C627   1.348       .  A
N624        C625   1.346       .  A
C625        C626   1.387       .  A
C625        H628   1.081       .  S
C626        C627   1.389       .  A
C626       C1412   1.489       .  S
C627        H629   1.081       .  S
N630        N631   1.321       .  A
N630        C634   1.346       .  A
N630       Cu638   2.075       .  S
N631        C632   1.349       .  A
N631       Cu637   2.086       .  S
C632        C633   1.388       .  A
C632        H635   1.079       .  S
C633        C634   1.385       .  A
C633        C812   1.485       .  S
C634        H636   1.080       .  S
Cu637       N640   2.087       .  S
Cu638       N648   2.076       .  S
Cu639       N641   2.098       .  S
Cu639       N647   2.098       .  S
N640        N641   1.324       .  A
N640        C644   1.345       .  A
N641        C642   1.351       .  A
C642        C643   1.391       .  A
C642        H645   1.080       .  S
C643        C644   1.388       .  A
C643        C672   1.494       .  S
C644        H646   1.081       .  S
N647        N648   1.323       .  A
N647        C651   1.350       .  A
N648        C649   1.345       .  A
C649        C650   1.383       .  A
C649        H652   1.081       .  S
C650        C651   1.389       .  A
C650       C1312   1.484       .  S
C651        H653   1.081       .  S
N654        C658   1.359   1_655  A
N654        C655   1.359       .  A
N654        C712   1.439       .  S
C655        C656   1.380       .  A
C655        C665   1.479       .  S
C656        C657   1.371   1_655  A
C656        H659   1.082       .  S
C657        C658   1.381       .  A
C657        H660   1.082       .  S
C658        C685   1.478       .  S
C661        C662   1.409       .  A
C661        C666   1.401       .  A
C661        F679   1.358       .  S
C662        C663   1.411       .  A
C662        C667   1.497       .  S
C663        C664   1.404       .  A
C663        F668   1.357       .  S
C664        C665   1.404       .  A
C664        F680   1.358       .  S
C665        C666   1.405       .  A
C666        F669   1.358       .  S
C667        C670   1.409       .  A
C667        C674   1.409       .  A
C670        C671   1.399       .  A
C670        F675   1.358       .  S
C671        C672   1.408       .  A
C671        F677   1.357       .  S
C672        C673   1.411       .  A
C673        C674   1.408       .  A
C673        F676   1.357       .  S
C674        F678   1.357       .  S
C681        C682   1.405       .  A
C681        C686   1.403       .  A
C681        F699   1.358       .  S
C682        C683   1.405       .  A
C682        C687   1.483       .  S
C683        C684   1.401       .  A
C683        F688   1.358       .  S
C684        C685   1.405       .  A
C684        F700   1.358       .  S
C685        C686   1.406       .  A
C686        F689   1.357       .  S
C687        C690   1.403       .  A
C687        C694   1.404       .  A
C690        C691   1.397       .  A
C690        F695   1.358       .  S
C691        C692   1.409       .  A
C691        F697   1.357       .  S
C692        C693   1.413       .  A
C693        C694   1.407       .  A
C693        F696   1.357       .  S
C694        F698   1.357       .  S
C701        C702   1.404   1_565  A
C701        C706   1.400       .  A
C701        F719   1.358   1_665  S
C702        C703   1.404       .  A
C702        C707   1.479       .  S
C703        C704   1.400   1_545  A
C703        F708   1.358       .  S
C704        C705   1.407       .  A
C704        F720   1.357       .  S
C705        C706   1.404       .  A
C706        F709   1.355   1_655  S
C707        C710   1.403       .  A
C707        C714   1.406       .  A
C710        C711   1.398   1_655  A
C710        F715   1.358   1_655  S
C711        C712   1.406   1_455  A
C711        F717   1.357       .  S
C712        C713   1.404       .  A
C713        C714   1.404       .  A
C713        F716   1.355       .  S
C714        F718   1.357       .  S
C721        C722   1.406       .  A
C721        C726   1.407       .  A
C721        F739   1.357       .  S
C722        C723   1.406       .  A
C722        C727   1.485       .  S
C723        C724   1.394       .  A
C723        F728   1.358       .  S
C724        C725   1.406       .  A
C724        F740   1.358       .  S
C725        C726   1.410       .  A
C726        F729   1.357       .  S
C727        C730   1.407       .  A
C727        C734   1.406       .  A
C730        C731   1.404       .  A
C730        F735   1.358       .  S
C731        C732   1.405       .  A
C731        F737   1.358       .  S
C732        C733   1.404       .  A
C733        C734   1.398       .  A
C733        F736   1.358       .  S
C734        F738   1.358       .  S
C741        C742   1.408       .  A
C741        C746   1.406       .  A
C741        F759   1.358       .  S
C742        C743   1.407       .  A
C742        C747   1.490       .  S
C743        C744   1.399       .  A
C743        F748   1.358       .  S
C744        C745   1.404       .  A
C744        F760   1.358       .  S
C745        C746   1.406       .  A
C746        F749   1.358   1_455  S
C747        C750   1.408       .  A
C747        C754   1.405       .  A
C750        C751   1.410       .  A
C750        F755   1.357       .  S
C751        C752   1.411       .  A
C751        F757   1.357       .  S
C752        C753   1.408       .  A
C753        C754   1.394       .  A
C753        F756   1.357       .  S
C754        F758   1.358       .  S
C761        C762   1.406       .  A
C761        C766   1.402       .  A
C761        F779   1.358       .  S
C762        C763   1.405       .  A
C762        C767   1.487       .  S
C763        C764   1.401       .  A
C763        F768   1.358       .  S
C764        C765   1.410       .  A
C764        F780   1.358       .  S
C765        C766   1.409       .  A
C766        F769   1.357       .  S
C767        C770   1.404       .  A
C767        C774   1.406       .  A
C770        C771   1.400       .  A
C770        F775   1.358       .  S
C771        C772   1.411       .  A
C771        F777   1.357       .  S
C772        C773   1.410       .  A
C773        C774   1.403       .  A
C773        F776   1.357       .  S
C774        F778   1.358       .  S
C781        C782   1.408       .  A
C781        C786   1.400   1_455  A
C781        F799   1.358   1_455  S
C782        C783   1.411       .  A
C782        C787   1.493       .  S
C783        C784   1.402       .  A
C783        F788   1.358       .  S
C784        C785   1.402       .  A
C784        F800   1.358       .  S
C785        C786   1.405   1_455  A
C786        F789   1.358       .  S
C787        C790   1.407       .  A
C787        C794   1.408       .  A
C790        C791   1.396       .  A
C790        F795   1.358       .  S
C791        C792   1.410       .  A
C791        F797   1.357       .  S
C792        C793   1.412       .  A
C793        C794   1.406       .  A
C793        F796   1.357       .  S
C794        F798   1.358       .  S
C801        C802   1.408       .  A
C801        C806   1.400       .  A
C801        F819   1.358       .  S
C802        C803   1.409       .  A
C802        C807   1.492       .  S
C803        C804   1.401       .  A
C803        F808   1.358       .  S
C804        C805   1.406       .  A
C804        F820   1.358       .  S
C805        C806   1.406       .  A
C806        F809   1.358       .  S
C807        C810   1.409       .  A
C807        C814   1.408       .  A
C810        C811   1.402       .  A
C810        F815   1.358       .  S
C811        C812   1.407       .  A
C811        F817   1.358       .  S
C812        C813   1.407       .  A
C813        C814   1.400       .  A
C813        F816   1.357       .  S
C814        F818   1.358       .  S
C821        C822   1.406       .  A
C821        C826   1.397       .  A
C821        F839   1.358       .  S
C822        C823   1.409       .  A
C822        C827   1.487       .  S
C823        C824   1.403       .  A
C823        F828   1.358       .  S
C824        C825   1.404       .  A
C824        F840   1.358       .  S
C825        C826   1.405       .  A
C826        F829   1.358       .  S
C827        C830   1.407       .  A
C827        C834   1.406       .  A
C830        C831   1.399       .  A
C830        F835   1.358       .  S
C831        C832   1.409       .  A
C831        F837   1.358       .  S
C832        C833   1.410       .  A
C833        C834   1.403       .  A
C833        F836   1.357       .  S
C834        F838   1.358       .  S
C841        C842   1.404       .  A
C841        C846   1.399       .  A
C841        F859   1.358       .  S
C842        C843   1.408       .  A
C842        C847   1.486       .  S
C843        C844   1.406       .  A
C843        F848   1.357   1_655  S
C844        C845   1.405       .  A
C844        F860   1.354   1_655  S
C845        C846   1.406       .  A
C846        F849   1.357       .  S
C847        C850   1.405       .  A
C847        C854   1.407       .  A
C850        C851   1.402       .  A
C850        F855   1.358   1_655  S
C851        C852   1.406       .  A
C851        F857   1.357   1_655  S
C852        C853   1.405       .  A
C853        C854   1.403       .  A
C853        F856   1.357       .  S
C854        F858   1.358       .  S
C861        C862   1.407       .  A
C861        C866   1.401       .  A
C861        F879   1.358       .  S
C862        C863   1.408       .  A
C862        C867   1.491       .  S
C863        C864   1.401       .  A
C863        F868   1.358       .  S
C864        C865   1.408       .  A
C864        F880   1.357       .  S
C865        C866   1.409       .  A
C866        F869   1.357       .  S
C867        C870   1.407       .  A
C867        C874   1.406       .  A
C870        C871   1.401       .  A
C870        F875   1.358       .  S
C871        C872   1.410       .  A
C871        F877   1.357       .  S
C872        C873   1.411       .  A
C873        C874   1.400       .  A
C873        F876   1.357       .  S
C874        F878   1.358       .  S
C881        C882   1.404       .  A
C881        C886   1.399       .  A
C881        F899   1.358       .  S
C882        C883   1.404       .  A
C882        C887   1.486       .  S
C883        C884   1.406       .  A
C883        F888   1.357       .  S
C884        C885   1.412       .  A
C884        F900   1.357       .  S
C885        C886   1.413       .  A
C886        F889   1.357       .  S
C887        C890   1.405   1_455  A
C887        C894   1.405       .  A
C890        C891   1.403       .  A
C890        F895   1.358       .  S
C891        C892   1.407       .  A
C891        F897   1.358       .  S
C892        C893   1.406   1_655  A
C893        C894   1.401       .  A
C893        F896   1.357       .  S
C894        F898   1.358       .  S
C901        C902   1.406       .  A
C901        C906   1.399       .  A
C901        F919   1.358       .  S
C902        C903   1.407       .  A
C902        C907   1.483       .  S
C903        C904   1.400       .  A
C903        F908   1.358       .  S
C904        C905   1.406       .  A
C904        F920   1.358       .  S
C905        C906   1.406       .  A
C906        F909   1.358       .  S
C907        C910   1.405       .  A
C907        C914   1.406       .  A
C910        C911   1.400       .  A
C910        F915   1.358       .  S
C911        C912   1.409       .  A
C911        F917   1.357       .  S
C912        C913   1.408       .  A
C913        C914   1.399       .  A
C913        F916   1.357       .  S
C914        F918   1.358       .  S
C921        C922   1.407       .  A
C921        C926   1.406       .  A
C921        F939   1.357       .  S
C922        C923   1.406       .  A
C922        C927   1.486       .  S
C923        C924   1.397       .  A
C923        F928   1.358       .  S
C924        C925   1.407       .  A
C924        F940   1.358       .  S
C925        C926   1.408       .  A
C926        F929   1.357       .  S
C927        C930   1.405       .  A
C927        C934   1.408       .  A
C930        C931   1.399       .  A
C930        F935   1.358       .  S
C931        C932   1.406       .  A
C931        F937   1.358       .  S
C932        C933   1.405       .  A
C933        C934   1.403       .  A
C933        F936   1.358       .  S
C934        F938   1.358       .  S
C941        C942   1.406       .  A
C941        C946   1.405       .  A
C941        F959   1.358       .  S
C942        C943   1.403       .  A
C942        C947   1.485       .  S
C943        C944   1.398       .  A
C943        F948   1.358       .  S
C944        C945   1.410       .  A
C944        F960   1.357       .  S
C945        C946   1.410       .  A
C946        F949   1.357       .  S
C947        C950   1.405       .  A
C947        C954   1.403       .  A
C950        C951   1.404       .  A
C950        F955   1.358       .  S
C951        C952   1.412       .  A
C951        F957   1.357       .  S
C952        C953   1.412       .  A
C953        C954   1.398       .  A
C953        F956   1.357       .  S
C954        F958   1.358       .  S
C961        C962   1.404       .  A
C961        C966   1.397       .  A
C961        F979   1.358       .  S
C962        C963   1.405       .  A
C962        C967   1.484       .  S
C963        C964   1.407       .  A
C963        F968   1.358       .  S
C964        C965   1.411       .  A
C964        F980   1.357       .  S
C965        C966   1.408       .  A
C966        F969   1.357       .  S
C967        C970   1.407       .  A
C967        C974   1.405       .  A
C970        C971   1.402       .  A
C970        F975   1.358       .  S
C971        C972   1.404       .  A
C971        F977   1.358       .  S
C972        C973   1.405       .  A
C973        C974   1.400       .  A
C973        F976   1.358       .  S
C974        F978   1.358       .  S
C981        C982   1.407       .  A
C981        C986   1.405       .  A
C981        F999   1.358       .  S
C982        C983   1.406       .  A
C982        C987   1.493       .  S
C983        C984   1.401       .  A
C983        F988   1.358       .  S
C984        C985   1.412       .  A
C984       F1000   1.357       .  S
C985        C986   1.412       .  A
C986        F989   1.357       .  S
C987        C990   1.407       .  A
C987        C994   1.405       .  A
C990        C991   1.405       .  A
C990        F995   1.358       .  S
C991        C992   1.412       .  A
C991        F997   1.357       .  S
C992        C993   1.412       .  A
C993        C994   1.401       .  A
C993        F996   1.356       .  S
C994        F998   1.358       .  S
C1001      C1002   1.406       .  A
C1001      C1006   1.403       .  A
C1001      F1019   1.358       .  S
C1002      C1003   1.404       .  A
C1002      C1007   1.484       .  S
C1003      C1004   1.401       .  A
C1003      F1008   1.358       .  S
C1004      C1005   1.407       .  A
C1004      F1020   1.358   1_554  S
C1005      C1006   1.406       .  A
C1006      F1009   1.358       .  S
C1007      C1010   1.404       .  A
C1007      C1014   1.406       .  A
C1010      C1011   1.397       .  A
C1010      F1015   1.358       .  S
C1011      C1012   1.406       .  A
C1011      F1017   1.358       .  S
C1012      C1013   1.409       .  A
C1013      C1014   1.408       .  A
C1013      F1016   1.357       .  S
C1014      F1018   1.357       .  S
C1021      C1022   1.408       .  A
C1021      C1026   1.401       .  A
C1021      F1039   1.358       .  S
C1022      C1023   1.408       .  A
C1022      C1027   1.489       .  S
C1023      C1024   1.401       .  A
C1023      F1028   1.358   1_556  S
C1024      C1025   1.404       .  A
C1024      F1040   1.357   1_556  S
C1025      C1026   1.404       .  A
C1026      F1029   1.357       .  S
C1027      C1030   1.408       .  A
C1027      C1034   1.407       .  A
C1030      C1031   1.403   1_655  A
C1030      F1035   1.357       .  S
C1031      C1032   1.405       .  A
C1031      F1037   1.354       .  S
C1032      C1033   1.406       .  A
C1033      C1034   1.400   1_455  A
C1033      F1036   1.357       .  S
C1034      F1038   1.358       .  S
C1041      C1042   1.405       .  A
C1041      C1046   1.400       .  A
C1041      F1059   1.358       .  S
C1042      C1043   1.408       .  A
C1042      C1047   1.488       .  S
C1043      C1044   1.404       .  A
C1043      F1048   1.358       .  S
C1044      C1045   1.407       .  A
C1044      F1060   1.358       .  S
C1045      C1046   1.408       .  A
C1046      F1049   1.358       .  S
C1047      C1050   1.406       .  A
C1047      C1054   1.405       .  A
C1050      C1051   1.402       .  A
C1050      F1055   1.358       .  S
C1051      C1052   1.411       .  A
C1051      F1057   1.357       .  S
C1052      C1053   1.411       .  A
C1053      C1054   1.403       .  A
C1053      F1056   1.357       .  S
C1054      F1058   1.358       .  S
C1061      C1062   1.406       .  A
C1061      C1066   1.397       .  A
C1061      F1079   1.359       .  S
C1062      C1063   1.406       .  A
C1062      C1067   1.486       .  S
C1063      C1064   1.405       .  A
C1063      F1068   1.357       .  S
C1064      C1065   1.409       .  A
C1064      F1080   1.357       .  S
C1065      C1066   1.408       .  A
C1066      F1069   1.358       .  S
C1067      C1070   1.406       .  A
C1067      C1074   1.408       .  A
C1070      C1071   1.398       .  A
C1070      F1075   1.358       .  S
C1071      C1072   1.404       .  A
C1071      F1077   1.358       .  S
C1072      C1073   1.405       .  A
C1073      C1074   1.403       .  A
C1073      F1076   1.358       .  S
C1074      F1078   1.358       .  S
C1081      C1082   1.405       .  A
C1081      C1086   1.399       .  A
C1081      F1099   1.358       .  S
C1082      C1083   1.407       .  A
C1082      C1087   1.490       .  S
C1083      C1084   1.405       .  A
C1083      F1088   1.358       .  S
C1084      C1085   1.412       .  A
C1084      F1100   1.357       .  S
C1085      C1086   1.411       .  A
C1086      F1089   1.357       .  S
C1087      C1090   1.406       .  A
C1087      C1094   1.407       .  A
C1090      C1091   1.401       .  A
C1090      F1095   1.358       .  S
C1091      C1092   1.409       .  A
C1091      F1097   1.357       .  S
C1092      C1093   1.410       .  A
C1093      C1094   1.403       .  A
C1093      F1096   1.357       .  S
C1094      F1098   1.358       .  S
C1101      C1102   1.409       .  A
C1101      C1106   1.403       .  A
C1101      F1119   1.358       .  S
C1102      C1103   1.406       .  A
C1102      C1107   1.486       .  S
C1103      C1104   1.397       .  A
C1103      F1108   1.358       .  S
C1104      C1105   1.405       .  A
C1104      F1120   1.358       .  S
C1105      C1106   1.405       .  A
C1106      F1109   1.357   1_554  S
C1107      C1110   1.405       .  A
C1107      C1114   1.407       .  A
C1110      C1111   1.402       .  A
C1110      F1115   1.358       .  S
C1111      C1112   1.411       .  A
C1111      F1117   1.357       .  S
C1112      C1113   1.408       .  A
C1113      C1114   1.399       .  A
C1113      F1116   1.358       .  S
C1114      F1118   1.358       .  S
C1121      C1122   1.405       .  A
C1121      C1126   1.401       .  A
C1121      F1139   1.358       .  S
C1122      C1123   1.405       .  A
C1122      C1127   1.485       .  S
C1123      C1124   1.401       .  A
C1123      F1128   1.358       .  S
C1124      C1125   1.409       .  A
C1124      F1140   1.357       .  S
C1125      C1126   1.409       .  A
C1126      F1129   1.357       .  S
C1127      C1130   1.404       .  A
C1127      C1134   1.405       .  A
C1130      C1131   1.399       .  A
C1130      F1135   1.358       .  S
C1131      C1132   1.410       .  A
C1131      F1137   1.357       .  S
C1132      C1133   1.411       .  A
C1133      C1134   1.403       .  A
C1133      F1136   1.357       .  S
C1134      F1138   1.358       .  S
C1141      C1142   1.404       .  A
C1141      C1146   1.398   1_554  A
C1141      F1159   1.358   1_554  S
C1142      C1143   1.405       .  A
C1142      C1147   1.482       .  S
C1143      C1144   1.403       .  A
C1143      F1148   1.358       .  S
C1144      C1145   1.406       .  A
C1144      F1160   1.358       .  S
C1145      C1146   1.406   1_554  A
C1146      F1149   1.358       .  S
C1147      C1150   1.404       .  A
C1147      C1154   1.404       .  A
C1150      C1151   1.395       .  A
C1150      F1155   1.358       .  S
C1151      C1152   1.408       .  A
C1151      F1157   1.357       .  S
C1152      C1153   1.412       .  A
C1153      C1154   1.406       .  A
C1153      F1156   1.357       .  S
C1154      F1158   1.357       .  S
C1161      C1162   1.409       .  A
C1161      C1166   1.405       .  A
C1161      F1179   1.358       .  S
C1162      C1163   1.408       .  A
C1162      C1167   1.497       .  S
C1163      C1164   1.403       .  A
C1163      F1168   1.358       .  S
C1164      C1165   1.410       .  A
C1164      F1180   1.357       .  S
C1165      C1166   1.409       .  A
C1166      F1169   1.357       .  S
C1167      C1170   1.407       .  A
C1167      C1174   1.409       .  A
C1170      C1171   1.403       .  A
C1170      F1175   1.358       .  S
C1171      C1172   1.412       .  A
C1171      F1177   1.357       .  S
C1172      C1173   1.410       .  A
C1173      C1174   1.405       .  A
C1173      F1176   1.357       .  S
C1174      F1178   1.358       .  S
C1181      C1182   1.405       .  A
C1181      C1186   1.398       .  A
C1181      F1199   1.358       .  S
C1182      C1183   1.404       .  A
C1182      C1187   1.483       .  S
C1183      C1184   1.402       .  A
C1183      F1188   1.358       .  S
C1184      C1185   1.413       .  A
C1184      F1200   1.357       .  S
C1185      C1186   1.408       .  A
C1186      F1189   1.357       .  S
C1187      C1190   1.404       .  A
C1187      C1194   1.407       .  A
C1190      C1191   1.395       .  A
C1190      F1195   1.358       .  S
C1191      C1192   1.407       .  A
C1191      F1197   1.358       .  S
C1192      C1193   1.408       .  A
C1193      C1194   1.403       .  A
C1193      F1196   1.356       .  S
C1194      F1198   1.358       .  S
C1201      C1202   1.406       .  A
C1201      C1206   1.399       .  A
C1201      F1219   1.358       .  S
C1202      C1203   1.407       .  A
C1202      C1207   1.486       .  S
C1203      C1204   1.402       .  A
C1203      F1208   1.358       .  S
C1204      C1205   1.407       .  A
C1204      F1220   1.357   1_556  S
C1205      C1206   1.405       .  A
C1206      F1209   1.353       .  S
C1207      C1210   1.407       .  A
C1207      C1214   1.406       .  A
C1210      C1211   1.403       .  A
C1210      F1215   1.357   1_556  S
C1211      C1212   1.405       .  A
C1211      F1217   1.356       .  S
C1212      C1213   1.405       .  A
C1213      C1214   1.399       .  A
C1213      F1216   1.357       .  S
C1214      F1218   1.358       .  S
C1221      C1222   1.409       .  A
C1221      C1226   1.402       .  A
C1221      F1239   1.358       .  S
C1222      C1223   1.408       .  A
C1222      C1227   1.491       .  S
C1223      C1224   1.401       .  A
C1223      F1228   1.358       .  S
C1224      C1225   1.406       .  A
C1224      F1240   1.358       .  S
C1225      C1226   1.406       .  A
C1226      F1229   1.358       .  S
C1227      C1230   1.408       .  A
C1227      C1234   1.407       .  A
C1230      C1231   1.403       .  A
C1230      F1235   1.358       .  S
C1231      C1232   1.409       .  A
C1231      F1237   1.358       .  S
C1232      C1233   1.407       .  A
C1233      C1234   1.400       .  A
C1233      F1236   1.357       .  S
C1234      F1238   1.358       .  S
C1241      C1242   1.403       .  A
C1241      C1246   1.395       .  A
C1241      F1259   1.359   1_554  S
C1242      C1243   1.403       .  A
C1242      C1247   1.476       .  S
C1243      C1244   1.405       .  A
C1243      F1248   1.357       .  S
C1244      C1245   1.411       .  A
C1244      F1260   1.357       .  S
C1245      C1246   1.406       .  A
C1246      F1249   1.358       .  S
C1247      C1250   1.406   1_554  A
C1247      C1254   1.403       .  A
C1250      C1251   1.402       .  A
C1250      F1255   1.357       .  S
C1251      C1252   1.403       .  A
C1251      F1257   1.358       .  S
C1252      C1253   1.404       .  A
C1253      C1254   1.396   1_556  A
C1253      F1256   1.358   1_556  S
C1254      F1258   1.358       .  S
C1261      C1262   1.404       .  A
C1261      C1266   1.401       .  A
C1261      F1279   1.358       .  S
C1262      C1263   1.404       .  A
C1262      C1267   1.482       .  S
C1263      C1264   1.399       .  A
C1263      F1268   1.358       .  S
C1264      C1265   1.410       .  A
C1264      F1280   1.357       .  S
C1265      C1266   1.411       .  A
C1266      F1269   1.357       .  S
C1267      C1270   1.404       .  A
C1267      C1274   1.405       .  A
C1270      C1271   1.400       .  A
C1270      F1275   1.358       .  S
C1271      C1272   1.410       .  A
C1271      F1277   1.357       .  S
C1272      C1273   1.409       .  A
C1273      C1274   1.400       .  A
C1273      F1276   1.357       .  S
C1274      F1278   1.358       .  S
C1281      C1282   1.407       .  A
C1281      C1286   1.400       .  A
C1281      F1299   1.358       .  S
C1282      C1283   1.408       .  A
C1282      C1287   1.488       .  S
C1283      C1284   1.401       .  A
C1283      F1288   1.358       .  S
C1284      C1285   1.405       .  A
C1284      F1300   1.358       .  S
C1285      C1286   1.404       .  A
C1286      F1289   1.358       .  S
C1287      C1290   1.407       .  A
C1287      C1294   1.407       .  A
C1290      C1291   1.404       .  A
C1290      F1295   1.358       .  S
C1291      C1292   1.409       .  A
C1291      F1297   1.357       .  S
C1292      C1293   1.407       .  A
C1293      C1294   1.398       .  A
C1293      F1296   1.358       .  S
C1294      F1298   1.358       .  S
C1301      C1302   1.408       .  A
C1301      C1306   1.403       .  A
C1301      F1319   1.358       .  S
C1302      C1303   1.409       .  A
C1302      C1307   1.494       .  S
C1303      C1304   1.401       .  A
C1303      F1308   1.358       .  S
C1304      C1305   1.408       .  A
C1304      F1320   1.358       .  S
C1305      C1306   1.408       .  A
C1306      F1309   1.357       .  S
C1307      C1310   1.409       .  A
C1307      C1314   1.409       .  A
C1310      C1311   1.401       .  A
C1310      F1315   1.358       .  S
C1311      C1312   1.406       .  A
C1311      F1317   1.358       .  S
C1312      C1313   1.406       .  A
C1313      C1314   1.403       .  A
C1313      F1316   1.357       .  S
C1314      F1318   1.358       .  S
C1321      C1322   1.408       .  A
C1321      C1326   1.404       .  A
C1321      F1339   1.358       .  S
C1322      C1323   1.406       .  A
C1322      C1327   1.489       .  S
C1323      C1324   1.398       .  A
C1323      F1328   1.358       .  S
C1324      C1325   1.406       .  A
C1324      F1340   1.358       .  S
C1325      C1326   1.408       .  A
C1326      F1329   1.356       .  S
C1327      C1330   1.408       .  A
C1327      C1334   1.407       .  A
C1330      C1331   1.400       .  A
C1330      F1335   1.358       .  S
C1331      C1332   1.407       .  A
C1331      F1337   1.358       .  S
C1332      C1333   1.408       .  A
C1333      C1334   1.402       .  A
C1333      F1336   1.357       .  S
C1334      F1338   1.358       .  S
C1341      C1342   1.405       .  A
C1341      C1346   1.400       .  A
C1341      F1359   1.358       .  S
C1342      C1343   1.405       .  A
C1342      C1347   1.487       .  S
C1343      C1344   1.402       .  A
C1343      F1348   1.358       .  S
C1344      C1345   1.411       .  A
C1344      F1360   1.357       .  S
C1345      C1346   1.411       .  A
C1346      F1349   1.357       .  S
C1347      C1350   1.406       .  A
C1347      C1354   1.406       .  A
C1350      C1351   1.402       .  A
C1350      F1355   1.358       .  S
C1351      C1352   1.410       .  A
C1351      F1357   1.358       .  S
C1352      C1353   1.408       .  A
C1353      C1354   1.401       .  A
C1353      F1356   1.357       .  S
C1354      F1358   1.358       .  S
C1361      C1362   1.406       .  A
C1361      C1366   1.397       .  A
C1361      F1379   1.358       .  S
C1362      C1363   1.405       .  A
C1362      C1367   1.485       .  S
C1363      C1364   1.403       .  A
C1363      F1368   1.357       .  S
C1364      C1365   1.410       .  A
C1364      F1380   1.357       .  S
C1365      C1366   1.408       .  A
C1366      F1369   1.358       .  S
C1367      C1370   1.407   1_565  A
C1367      C1374   1.406       .  A
C1370      C1371   1.403       .  A
C1370      F1375   1.358       .  S
C1371      C1372   1.405       .  A
C1371      F1377   1.358       .  S
C1372      C1373   1.404   1_545  A
C1373      C1374   1.397       .  A
C1373      F1376   1.358       .  S
C1374      F1378   1.358       .  S
C1381      C1382   1.404       .  A
C1381      C1386   1.401   1_545  A
C1381      F1399   1.358   1_545  S
C1382      C1383   1.407       .  A
C1382      C1387   1.489       .  S
C1383      C1384   1.405       .  A
C1383      F1388   1.358       .  S
C1384      C1385   1.408       .  A
C1384      F1400   1.352       .  S
C1385      C1386   1.410   1_545  A
C1386      F1389   1.357       .  S
C1387      C1390   1.405       .  A
C1387      C1394   1.409       .  A
C1390      C1391   1.400       .  A
C1390      F1395   1.358       .  S
C1391      C1392   1.406       .  A
C1391      F1397   1.357       .  S
C1392      C1393   1.404       .  A
C1393      C1394   1.405       .  A
C1393      F1396   1.356   1_545  S
C1394      F1398   1.357   1_545  S
C1401      C1402   1.404       .  A
C1401      C1406   1.400       .  A
C1401      F1419   1.358       .  S
C1402      C1403   1.404       .  A
C1402      C1407   1.486       .  S
C1403      C1404   1.402       .  A
C1403      F1408   1.358       .  S
C1404      C1405   1.412       .  A
C1404      F1420   1.357       .  S
C1405      C1406   1.412       .  A
C1406      F1409   1.357       .  S
C1407      C1410   1.405       .  A
C1407      C1414   1.405       .  A
C1410      C1411   1.401       .  A
C1410      F1415   1.358       .  S
C1411      C1412   1.410       .  A
C1411      F1417   1.357       .  S
C1412      C1413   1.410       .  A
C1413      C1414   1.402       .  A
C1413      F1416   1.357       .  S
C1414      F1418   1.358       .  S
C1421      C1422   1.403       .  A
C1421      C1426   1.398       .  A
C1421      F1439   1.358       .  S
C1422      C1423   1.402       .  A
C1422      C1427   1.480       .  S
C1423      C1424   1.404       .  A
C1423      F1428   1.357       .  S
C1424      C1425   1.413       .  A
C1424      F1440   1.357       .  S
C1425      C1426   1.410       .  A
C1426      F1429   1.357       .  S
C1427      C1430   1.403       .  A
C1427      C1434   1.405       .  A
C1430      C1431   1.400       .  A
C1430      F1435   1.358       .  S
C1431      C1432   1.409       .  A
C1431      F1437   1.358   1_545  S
C1432      C1433   1.406       .  A
C1433      C1434   1.402       .  A
C1433      F1436   1.357       .  S
C1434      F1438   1.357       .  S
C1441      C1442   1.405       .  A
C1441      C1446   1.397       .  A
C1441      F1459   1.358       .  S
C1442      C1443   1.407       .  A
C1442      C1447   1.485       .  S
C1443      C1444   1.402       .  A
C1443      F1448   1.358       .  S
C1444      C1445   1.408       .  A
C1444      F1460   1.358       .  S
C1445      C1446   1.408       .  A
C1446      F1449   1.358       .  S
C1447      C1450   1.406       .  A
C1447      C1454   1.406       .  A
C1450      C1451   1.397       .  A
C1450      F1455   1.358       .  S
C1451      C1452   1.409       .  A
C1451      F1457   1.358       .  S
C1452      C1453   1.409       .  A
C1453      C1454   1.402       .  A
C1453      F1456   1.357       .  S
C1454      F1458   1.358       .  S
C1461      C1462   1.409       .  A
C1461      C1466   1.399       .  A
C1461      F1479   1.358       .  S
C1462      C1463   1.407       .  A
C1462      C1467   1.493       .  S
C1463      C1464   1.404       .  A
C1463      F1468   1.357       .  S
C1464      C1465   1.410       .  A
C1464      F1480   1.357       .  S
C1465      C1466   1.409       .  A
C1466      F1469   1.358       .  S
C1467      C1470   1.407       .  A
C1467      C1474   1.409       .  A
C1470      C1471   1.400   1_565  A
C1470      F1475   1.358   1_565  S
C1471      C1472   1.407   1_545  A
C1471      F1477   1.358       .  S
C1472      C1473   1.405       .  A
C1473      C1474   1.402       .  A
C1473      F1476   1.358       .  S
C1474      F1478   1.358       .  S
C1481      C1482   1.404       .  A
C1481      C1486   1.399       .  A
C1481      F1499   1.358       .  S
C1482      C1483   1.404       .  A
C1482      C1487   1.477       .  S
C1483      C1484   1.396       .  A
C1483      F1488   1.358       .  S
C1484      C1485   1.408       .  A
C1484      F1500   1.358       .  S
C1485      C1486   1.408       .  A
C1486      F1489   1.357       .  S
C1487      C1490   1.404       .  A
C1487      C1494   1.403       .  A
C1490      C1491   1.399       .  A
C1490      F1495   1.358       .  S
C1491      C1492   1.409       .  A
C1491      F1497   1.357       .  S
C1492      C1493   1.410       .  A
C1493      C1494   1.396       .  A
C1493      F1496   1.357       .  S
C1494      F1498   1.358       .  S
C1501      C1502   1.404       .  A
C1501      C1506   1.396       .  A
C1501      F1519   1.358       .  S
C1502      C1503   1.405       .  A
C1502      C1507   1.478       .  S
C1503      C1504   1.399       .  A
C1503      F1508   1.358       .  S
C1504      C1505   1.408       .  A
C1504      F1520   1.358       .  S
C1505      C1506   1.406       .  A
C1506      F1509   1.358       .  S
C1507      C1510   1.405       .  A
C1507      C1514   1.404       .  A
C1510      C1511   1.400       .  A
C1510      F1515   1.358       .  S
C1511      C1512   1.409       .  A
C1511      F1517   1.358       .  S
C1512      C1513   1.407       .  A
C1513      C1514   1.396       .  A
C1513      F1516   1.357       .  S
C1514      F1518   1.358       .  S
C1521      C1522   1.407       .  A
C1521      C1526   1.394       .  A
C1521      F1539   1.358       .  S
C1522      C1523   1.411       .  A
C1522      C1527   1.488       .  S
C1523      C1524   1.404       .  A
C1523      F1528   1.358       .  S
C1524      C1525   1.402       .  A
C1524      F1540   1.357       .  S
C1525      C1526   1.404       .  A
C1526      F1529   1.359       .  S
C1527      C1530   1.409       .  A
C1527      C1534   1.410       .  A
C1530      C1531   1.398       .  A
C1530      F1535   1.358       .  S
C1531      C1532   1.403       .  A
C1531      F1537   1.358       .  S
C1532      C1533   1.403       .  A
C1533      C1534   1.399       .  A
C1533      F1536   1.358       .  S
C1534      F1538   1.358       .  S
C1541      C1542   1.406       .  A
C1541      C1546   1.399       .  A
C1541      F1559   1.358       .  S
C1542      C1543   1.406       .  A
C1542      C1547   1.484       .  S
C1543      C1544   1.402       .  A
C1543      F1548   1.358       .  S
C1544      C1545   1.407       .  A
C1544      F1560   1.358       .  S
C1545      C1546   1.406       .  A
C1546      F1549   1.358       .  S
C1547      C1550   1.406       .  A
C1547      C1554   1.405       .  A
C1550      C1551   1.403       .  A
C1550      F1555   1.358       .  S
C1551      C1552   1.408       .  A
C1551      F1557   1.357       .  S
C1552      C1553   1.407       .  A
C1553      C1554   1.399       .  A
C1553      F1556   1.358       .  S
C1554      F1558   1.358       .  S
C1561      C1562   1.408       .  A
C1561      C1566   1.400       .  A
C1561      F1579   1.358       .  S
C1562      C1563   1.407       .  A
C1562      C1567   1.489       .  S
C1563      C1564   1.400       .  A
C1563      F1568   1.358       .  S
C1564      C1565   1.409       .  A
C1564      F1580   1.357       .  S
C1565      C1566   1.408       .  A
C1566      F1569   1.357       .  S
C1567      C1570   1.407       .  A
C1567      C1574   1.409       .  A
C1570      C1571   1.398       .  A
C1570      F1575   1.358       .  S
C1571      C1572   1.406       .  A
C1571      F1577   1.358       .  S
C1572      C1573   1.407       .  A
C1573      C1574   1.401       .  A
C1573      F1576   1.358       .  S
C1574      F1578   1.358       .  S
C1581      C1582   1.404       .  A
C1581      C1586   1.402       .  A
C1581      F1599   1.358       .  S
C1582      C1583   1.405       .  A
C1582      C1587   1.483       .  S
C1583      C1584   1.400       .  A
C1583      F1588   1.358       .  S
C1584      C1585   1.409       .  A
C1584      F1600   1.358       .  S
C1585      C1586   1.410       .  A
C1586      F1589   1.357       .  S
C1587      C1590   1.403       .  A
C1587      C1594   1.407       .  A
C1590      C1591   1.396       .  A
C1590      F1595   1.358       .  S
C1591      C1592   1.407       .  A
C1591      F1597   1.358       .  S
C1592      C1593   1.406       .  A
C1593      C1594   1.405       .  A
C1593      F1596   1.357       .  S
C1594      F1598   1.357       .  S
C1601      C1602   1.409       .  A
C1601      C1606   1.402   1_556  A
C1601      F1619   1.358       .  S
C1602      C1603   1.411       .  A
C1602      C1607   1.501       .  S
C1603      C1604   1.402   1_556  A
C1603      F1608   1.358       .  S
C1604      C1605   1.409       .  A
C1604      F1620   1.354       .  S
C1605      C1606   1.412       .  A
C1606      F1609   1.356       .  S
C1607      C1610   1.411       .  A
C1607      C1614   1.408       .  A
C1610      C1611   1.402       .  A
C1610      F1615   1.357   1_545  S
C1611      C1612   1.409       .  A
C1611      F1617   1.352   1_545  S
C1612      C1613   1.413       .  A
C1613      C1614   1.400       .  A
C1613      F1616   1.357       .  S
C1614      F1618   1.358       .  S
C1621      C1622   1.404       .  A
C1621      C1626   1.400       .  A
C1621      F1639   1.358       .  S
C1622      C1623   1.403       .  A
C1622      C1627   1.481       .  S
C1623      C1624   1.399       .  A
C1623      F1628   1.358       .  S
C1624      C1625   1.411       .  A
C1624      F1640   1.357       .  S
C1625      C1626   1.410       .  A
C1626      F1629   1.357       .  S
C1627      C1630   1.405       .  A
C1627      C1634   1.403       .  A
C1630      C1631   1.401       .  A
C1630      F1635   1.358       .  S
C1631      C1632   1.409       .  A
C1631      F1637   1.357       .  S
C1632      C1633   1.409       .  A
C1633      C1634   1.398       .  A
C1633      F1636   1.357       .  S
C1634      F1638   1.358       .  S
C1641      C1642   1.404       .  A
C1641      C1646   1.401       .  A
C1641      F1659   1.358       .  S
C1642      C1643   1.402       .  A
C1642      C1647   1.478       .  S
C1643      C1644   1.398       .  A
C1643      F1648   1.358       .  S
C1644      C1645   1.409       .  A
C1644      F1660   1.357       .  S
C1645      C1646   1.409       .  A
C1646      F1649   1.357       .  S
C1647      C1650   1.403       .  A
C1647      C1654   1.403       .  A
C1650      C1651   1.400       .  A
C1650      F1655   1.358       .  S
C1651      C1652   1.409       .  A
C1651      F1657   1.357       .  S
C1652      C1653   1.410       .  A
C1653      C1654   1.399       .  A
C1653      F1656   1.357       .  S
C1654      F1658   1.358       .  S
C1661      C1662   1.405       .  A
C1661      C1666   1.397       .  A
C1661      F1679   1.358       .  S
C1662      C1663   1.404       .  A
C1662      C1667   1.482       .  S
C1663      C1664   1.403       .  A
C1663      F1668   1.357       .  S
C1664      C1665   1.410       .  A
C1664      F1680   1.357       .  S
C1665      C1666   1.407       .  A
C1666      F1669   1.358       .  S
C1667      C1670   1.407       .  A
C1667      C1674   1.404       .  A
C1670      C1671   1.404       .  A
C1670      F1675   1.357       .  S
C1671      C1672   1.405       .  A
C1671      F1677   1.357       .  S
C1672      C1673   1.406       .  A
C1673      C1674   1.396       .  A
C1673      F1676   1.359       .  S
C1674      F1678   1.358       .  S
C1681      C1682   1.401       .  A
C1681      C1686   1.399       .  A
C1681      F1699   1.358       .  S
C1682      C1683   1.402       .  A
C1682      C1687   1.474       .  S
C1683      C1684   1.396       .  A
C1683      F1688   1.358       .  S
C1684      C1685   1.409       .  A
C1684      F1700   1.357       .  S
C1685      C1686   1.412       .  A
C1686      F1689   1.357       .  S
C1687      C1690   1.402       .  A
C1687      C1694   1.399       .  A
C1690      C1691   1.400       .  A
C1690      F1695   1.358       .  S
C1691      C1692   1.413       .  A
C1691      F1697   1.356       .  S
C1692      C1693   1.414       .  A
C1693      C1694   1.394       .  A
C1693      F1696   1.356       .  S
C1694      F1698   1.358       .  S
C1701      C1702   1.405       .  A
C1701      C1706   1.400       .  A
C1701      F1719   1.358       .  S
C1702      C1703   1.405       .  A
C1702      C1707   1.480       .  S
C1703      C1704   1.399       .  A
C1703      F1708   1.358       .  S
C1704      C1705   1.405       .  A
C1704      F1720   1.358       .  S
C1705      C1706   1.406       .  A
C1706      F1709   1.358       .  S
C1707      C1710   1.404       .  A
C1707      C1714   1.403       .  A
C1710      C1711   1.401       .  A
C1710      F1715   1.358       .  S
C1711      C1712   1.409       .  A
C1711      F1717   1.357       .  S
C1712      C1713   1.410       .  A
C1713      C1714   1.399       .  A
C1713      F1716   1.357       .  S
C1714      F1718   1.358       .  S
C1721      C1722   1.404       .  A
C1721      C1726   1.398       .  A
C1721      F1739   1.358       .  S
C1722      C1723   1.404       .  A
C1722      C1727   1.481       .  S
C1723      C1724   1.401       .  A
C1723      F1728   1.358       .  S
C1724      C1725   1.410       .  A
C1724      F1740   1.357       .  S
C1725      C1726   1.410       .  A
C1726      F1729   1.358       .  S
C1727      C1730   1.406       .  A
C1727      C1734   1.404       .  A
C1730      C1731   1.402       .  A
C1730      F1735   1.357       .  S
C1731      C1732   1.407       .  A
C1731      F1737   1.357       .  S
C1732      C1733   1.407       .  A
C1733      C1734   1.396       .  A
C1733      F1736   1.358       .  S
C1734      F1738   1.358       .  S
