geometry optimzed in LAMMPS
_audit_creation_date              2020-12-01 
_audit_creation_method            'lammps2cif' 
_symmetry_space_group_name_H-M    'P1' 
_symmetry_Int_Tables_number       1 
_symmetry_cell_setting            triclinic 
loop_ 
_symmetry_equiv_pos_as_xyz 
  x,y,z 
_cell_length_a                    40.11688511 
_cell_length_b                    40.03257727010257 
_cell_length_c                    33.08724491919114 
_cell_angle_alpha                 90.20584062095772 
_cell_angle_beta                  89.94895491746726 
_cell_angle_gamma                 119.80621603415348 
loop_ 
_atom_site_label 
_atom_site_type_symbol 
_atom_site_fract_x 
_atom_site_fract_y 
_atom_site_fract_z 
_atom_site_charge 
O1          O  0.34649159  0.61263750  0.22162441    -0.81100
C2          C  0.37020040  0.74393272  0.30291893     0.98300
O3          O  0.38632930  0.72373394  0.30071301    -0.70200
O4          O  0.39182157  0.66179346  0.28800446    -0.73800
Al5        Al  0.38614222  0.69612117  0.25356919     1.49000
C6          C  0.36923833  0.63376322  0.30940212     0.93500
O7          O  0.26842137  0.61411857  0.28472037    -0.80000
O8          O  0.26984955  0.65914950  0.21134947    -0.73600
Al9        Al  0.30993961  0.61860421  0.25314457     1.90100
O10         O  0.27888553  0.67296075  0.29299959    -0.72600
O11         O  0.33653494  0.72261906  0.19791167    -0.72500
O12         O  0.34287585  0.73783748  0.27955100    -0.78100
O13         O  0.39351735  0.73697545  0.21994130    -0.76400
O14         O  0.33491097  0.67006017  0.25084909    -1.12500
O15         O  0.39123222  0.67152670  0.20650865    -0.71700
C16         C  0.37507582  0.63564195  0.20069142     0.99000
C17         C  0.26087817  0.63770061  0.30199673     0.95400
Al18       Al  0.30919632  0.69577641  0.24585788     1.55600
O19         O  0.33353633  0.61710200  0.30306637    -0.76300
C20         C  0.37271686  0.74274226  0.19593419     0.99600
C21         C  0.26383744  0.62855196  0.19400393     0.94500
O22         O  0.28264531  0.61230590  0.20388808    -0.81600
O23         O  0.61430614  0.33459128  0.29923487    -0.81100
C24         C  0.74214480  0.37173895  0.19602533     0.98300
O25         O  0.73613472  0.39401968  0.21793526    -0.70200
O26         O  0.67039112  0.39096007  0.20240595    -0.73800
Al27       Al  0.69443071  0.38765845  0.25072437     1.49000
C28         C  0.63459946  0.37477840  0.19660119     0.93500
O29         O  0.61475976  0.28338038  0.20185151    -0.80000
O30         O  0.67220891  0.28388148  0.29715229    -0.73600
Al31       Al  0.61780934  0.31042329  0.25054269     1.90100
O32         O  0.66009231  0.26985836  0.21592961    -0.72600
O33         O  0.73680020  0.34677603  0.28186803    -0.72500
O34         O  0.72230036  0.33572235  0.20033906    -0.78100
O35         O  0.72127280  0.39020273  0.29919279    -0.76400
O36         O  0.66915977  0.33637450  0.25006633    -1.12500
O37         O  0.65873199  0.39318101  0.28362532    -0.71700
C38         C  0.63031746  0.37052289  0.30473285     0.99000
C39         C  0.63169634  0.26455339  0.19493633     0.95400
Al40       Al  0.69545035  0.31115567  0.24893216     1.55600
O41         O  0.61170356  0.34613364  0.21754199    -0.76300
C42         C  0.74151256  0.37446262  0.30405088     0.99600
C43         C  0.63670695  0.26414402  0.30418188     0.94500
O44         O  0.61283769  0.26898295  0.28377578    -0.81600
C45         C  0.03663305  0.51482700  0.02015610     0.03000
C46         C  0.03772829  0.50875780  0.47824694     0.03000
C47         C  0.00329091  0.48681287  0.45701487    -0.17600
C48         C  0.96764547  0.47104009  0.47651785     0.03000
C49         C  0.96637198  0.47609994  0.01866529     0.03000
C50         C  0.00092411  0.49860981  0.03986027    -0.17600
H51         H  0.00012052  0.50235155  0.07227311     0.05000
H52         H  0.00422440  0.48325232  0.42457285     0.05000
C53         C  0.46903471  0.50568394  0.02364603     0.03000
C54         C  0.47302074  0.51005416  0.48132764     0.03000
C55         C  0.49300709  0.49490920  0.46022787    -0.17600
C56         C  0.50804536  0.47451230  0.48059229     0.03000
C57         C  0.50412875  0.47037204  0.02294779     0.03000
C58         C  0.48450241  0.48580904  0.04388520    -0.17600
H59         H  0.48195365  0.48303447  0.07651299     0.05000
H60         H  0.49526018  0.49740423  0.42757052     0.05000
C61         C  0.49021859  0.96857959  0.48000397     0.03000
C62         C  0.49523219  0.96905987  0.02220329     0.03000
C63         C  0.51781848  0.00429782  0.04205077    -0.17600
C64         C  0.53309839  0.03929176  0.02100352     0.03000
C65         C  0.52555119  0.03884695  0.47916767     0.03000
C66         C  0.50462977  0.00343898  0.45913006    -0.17600
H67         H  0.50038272  0.00301268  0.42670500     0.05000
H68         H  0.52164545  0.00459308  0.07454120     0.05000
C69         C  0.58603412  0.19003331  0.10980470     0.16700
C70         C  0.56241009  0.16510261  0.07938184    -0.32400
C71         C  0.56630107  0.13298869  0.07015745     0.21100
C72         C  0.59307537  0.12637775  0.08963127     0.03300
C73         C  0.61743277  0.15187183  0.11920368    -0.22100
C74         C  0.61295234  0.18348876  0.12902845     0.12400
S75         S  0.58303748  0.22831468  0.12858003    -0.05800
C76         C  0.61817070  0.23521838  0.16287146    -0.09200
C77         C  0.63177215  0.20958483  0.15912904    -0.25800
S78         S  0.59125632  0.08426691  0.07639481    -0.03000
C79         C  0.55409100  0.07553237  0.04416017    -0.16500
C80         C  0.54391496  0.10393015  0.04390937    -0.14500
H81         H  0.54088991  0.16966065  0.06470300     0.20900
H82         H  0.63790165  0.14647196  0.13501401     0.16900
H83         H  0.65329524  0.20913659  0.17850528     0.19400
H84         H  0.52046311  0.10266863  0.02650439     0.12800
C85         C  0.61451099  0.18890567  0.38700898     0.16700
C86         C  0.61604333  0.16449094  0.41634655    -0.32400
C87         C  0.58140263  0.13179791  0.42725191     0.21100
C88         C  0.54671838  0.12408174  0.41015677     0.03300
C89         C  0.54508672  0.14890329  0.38149030    -0.22100
C90         C  0.57977037  0.18125625  0.37014714     0.12400
S91         S  0.65360414  0.22823883  0.36721040    -0.05800
C92         C  0.62284011  0.23431765  0.33571821    -0.09200
C93         C  0.58432454  0.20741297  0.34096928    -0.25800
S94         S  0.50822905  0.08184780  0.42544175    -0.03000
C95         C  0.53909697  0.07444024  0.45528671    -0.16500
C96         C  0.57718769  0.10344343  0.45340168    -0.14500
H97         H  0.64316932  0.17009926  0.42919428     0.20900
H98         H  0.51810271  0.14264317  0.36772429     0.16900
H99         H  0.56101074  0.20625839  0.32339197     0.19400
H100        H  0.60059238  0.10321975  0.46945403     0.12800
C101        C  0.81872118  0.42199997  0.38613267     0.16700
C102        C  0.84372978  0.44525066  0.41672454    -0.32400
C103        C  0.87595606  0.44138837  0.42498611     0.21100
C104        C  0.88291987  0.41544952  0.40394323     0.03300
C105        C  0.85762572  0.39179890  0.37386901    -0.22100
C106        C  0.82557000  0.39580241  0.36549563     0.12400
S107        S  0.77923014  0.42379143  0.36966088    -0.05800
C108        C  0.77203652  0.38886706  0.33469596    -0.09200
C109        C  0.79872007  0.37649727  0.33625508    -0.25800
S110        S  0.92454234  0.41644302  0.41699366    -0.03000
C111        C  0.93245252  0.45185281  0.45159744    -0.16500
C112        C  0.90429454  0.46233044  0.45249431    -0.14500
H113        H  0.83873406  0.46595319  0.43279172     0.20900
H114        H  0.86309357  0.37172301  0.35716130     0.16900
H115        H  0.79910124  0.35524329  0.31621776     0.19400
H116        H  0.90502408  0.48466849  0.47165496     0.12800
C117        C  0.86951557  0.41383204  0.07269663     0.16700
C118        C  0.83482346  0.38412285  0.08837413    -0.32400
C119        C  0.81624522  0.39391732  0.11830741     0.21100
C120        C  0.83133620  0.43170498  0.13129240     0.03300
C121        C  0.86577426  0.46124532  0.11560088    -0.22100
C122        C  0.88460410  0.45139986  0.08635505     0.12400
S123        S  0.89738321  0.40807036  0.03738310    -0.05800
C124        C  0.92970399  0.45679528  0.04139728    -0.09200
C125        C  0.91911843  0.47606550  0.06873889    -0.25800
S126        S  0.80551123  0.43811974  0.16813449    -0.03000
C127        C  0.77406886  0.38925625  0.16692945    -0.16500
C128        C  0.78317839  0.36919652  0.13881841    -0.14500
H129        H  0.82321921  0.35465585  0.07821776     0.20900
H130        H  0.87774084  0.49059843  0.12628534     0.16900
H131        H  0.93587916  0.50655471  0.07538019     0.19400
H132        H  0.76698727  0.33833265  0.13420000     0.12800
C133        C  0.60545884  0.42363416  0.11488687     0.16700
C134        C  0.60369293  0.44706936  0.08443906    -0.32400
C135        C  0.56736132  0.44185269  0.07439912     0.21100
C136        C  0.53435688  0.41456696  0.09381340     0.03300
C137        C  0.53607571  0.39085808  0.12371366    -0.22100
C138        C  0.57226942  0.39607725  0.13373710     0.12400
S139        S  0.64670036  0.42632930  0.13303755    -0.05800
C140        C  0.61871621  0.38977097  0.16608981    -0.09200
C141        C  0.57965438  0.37647215  0.16285039    -0.25800
S142        S  0.49335445  0.41412789  0.07938652    -0.03000
C143        C  0.52074193  0.45087459  0.04648748    -0.16500
C144        C  0.55964259  0.46264917  0.04682045    -0.14500
H145        H  0.62950284  0.46881544  0.06974585     0.20900
H146        H  0.51036129  0.36971563  0.13905904     0.16900
H147        H  0.55777884  0.35409998  0.18146311     0.19400
H148        H  0.58117661  0.48604842  0.02892518     0.12800
C149        C  0.54045219  0.41179086  0.42340849     0.16700
C150        C  0.54408900  0.38179039  0.40571360    -0.32400
C151        C  0.57540762  0.39190062  0.37978033     0.21100
C152        C  0.60210067  0.43018470  0.37247140     0.03300
C153        C  0.59846686  0.46006192  0.39007631    -0.22100
C154        C  0.56690328  0.44998711  0.41533290     0.12400
S155        S  0.50426096  0.40577799  0.45511693    -0.05800
C156        C  0.52484896  0.45518821  0.45693197    -0.09200
C157        C  0.55791555  0.47502829  0.43419502    -0.25800
S158        S  0.63742480  0.43691424  0.33953994    -0.03000
C159        C  0.61583220  0.38761641  0.33458097    -0.16500
C160        C  0.58317912  0.36714853  0.35807206    -0.14500
H161        H  0.52315698  0.35195387  0.41143736     0.20900
H162        H  0.61902981  0.48989183  0.38379672     0.16900
H163        H  0.57453191  0.50607135  0.43184587     0.19400
H164        H  0.56555214  0.33608657  0.35832479     0.12800
C165        C  0.12257715  0.57786918  0.08906358     0.16700
C166        C  0.14847387  0.60493001  0.11666265    -0.32400
C167        C  0.18003830  0.60130196  0.12869553     0.21100
C168        C  0.18576061  0.57208646  0.11394148     0.03300
C169        C  0.16020471  0.54538627  0.08565975    -0.22100
C170        C  0.12852995  0.54899181  0.07364084     0.12400
S171        S  0.08131678  0.57606202  0.07273049    -0.05800
C172        C  0.07214977  0.53629124  0.04433508    -0.09200
C173        C  0.09976726  0.52518600  0.04759284    -0.25800
S174        S  0.22465412  0.57147965  0.13449208    -0.03000
C175        C  0.23334522  0.61117882  0.16301418    -0.16500
C176        C  0.20736512  0.62395212  0.15646675    -0.14500
H177        H  0.14379013  0.62738159  0.12889311     0.20900
H178        H  0.16438026  0.52237009  0.07416342     0.16900
H179        H  0.09828206  0.50042988  0.03249335     0.19400
H180        H  0.20772160  0.64789076  0.17220563     0.12800
C181        C  0.12482799  0.53938032  0.40945856     0.16700
C182        C  0.15117344  0.54074361  0.38093034    -0.32400
C183        C  0.17976553  0.57702409  0.36792863     0.21100
C184        C  0.18234649  0.61070013  0.38263410     0.03300
C185        C  0.15624454  0.60937306  0.41180586    -0.22100
C186        C  0.12743936  0.57290460  0.42479905     0.12400
S187        S  0.08658945  0.49796382  0.42667866    -0.05800
C188        C  0.07399533  0.52590353  0.45526190    -0.09200
C189        C  0.09836264  0.56529126  0.45154891    -0.25800
S190        S  0.21845036  0.65172053  0.36121526    -0.03000
C191        C  0.23002800  0.62292026  0.33243720    -0.16500
C192        C  0.20704976  0.58384378  0.33945977    -0.14500
H193        H  0.14899987  0.51459139  0.36873791     0.20900
H194        H  0.15785820  0.63550494  0.42327795     0.16900
H195        H  0.09411091  0.58703694  0.46641042     0.19400
H196        H  0.20973111  0.56141546  0.32396002     0.12800
C197        C  0.42169924  0.60637172  0.11660139     0.16700
C198        C  0.44431831  0.60459258  0.08520599    -0.32400
C199        C  0.43965211  0.56833333  0.07542357     0.21100
C200        C  0.41343549  0.53535902  0.09572341     0.03300
C201        C  0.39032960  0.53703670  0.12639929    -0.22100
C202        C  0.39524399  0.57320904  0.13640793     0.12400
S203        S  0.42451381  0.64768079  0.13510112    -0.05800
C204        C  0.38965660  0.61974678  0.16973036    -0.09200
C205        C  0.37661067  0.58065653  0.16660315    -0.25800
S206        S  0.41382399  0.49457286  0.08162827    -0.03000
C207        C  0.44957648  0.52204932  0.04779260    -0.16500
C208        C  0.46033949  0.56078321  0.04750957    -0.14500
H209        H  0.46528466  0.63038861  0.06983159     0.20900
H210        H  0.37012069  0.51138647  0.14253673     0.16900
H211        H  0.35514307  0.55883696  0.18603246     0.19400
H212        H  0.48303756  0.58238379  0.02898266     0.12800
C213        C  0.41061737  0.54433771  0.42744072     0.16700
C214        C  0.38066783  0.54838333  0.41066759    -0.32400
C215        C  0.39069329  0.58017604  0.38553876     0.21100
C216        C  0.42887808  0.60716265  0.37842988     0.03300
C217        C  0.45874492  0.60328109  0.39537425    -0.22100
C218        C  0.44872933  0.57101544  0.41951098     0.12400
S219        S  0.40456318  0.50706774  0.45735906    -0.05800
C220        C  0.45383940  0.52741341  0.45854460    -0.09200
C221        C  0.47369258  0.56129219  0.43702182    -0.25800
S222        S  0.43545811  0.64256969  0.34572967    -0.03000
C223        C  0.38625121  0.62036844  0.34034092    -0.16500
C224        C  0.36592337  0.58770803  0.36382406    -0.14500
H225        H  0.35090243  0.52715538  0.41610264     0.20900
H226        H  0.48850391  0.62394794  0.38904811     0.16900
H227        H  0.50467395  0.57795644  0.43460579     0.19400
H228        H  0.33497297  0.56959340  0.36362767     0.12800
C229        C  0.43916904  0.83103710  0.13298251     0.16700
C230        C  0.47089101  0.86417870  0.11772911    -0.32400
C231        C  0.46380392  0.88630357  0.09013408     0.21100
C232        C  0.42674481  0.87557232  0.07783489     0.03300
C233        C  0.39493015  0.84237664  0.09321789    -0.22100
C234        C  0.40198590  0.82042750  0.12127370     0.12400
S235        S  0.44209898  0.80152955  0.16770869    -0.05800
C236        C  0.39260175  0.77465064  0.16722908    -0.09200
C237        C  0.37492373  0.78787753  0.14088636    -0.25800
S238        S  0.42427494  0.90610952  0.04376899    -0.03000
C239        C  0.47365925  0.93362785  0.04629053    -0.16500
C240        C  0.49087954  0.91985375  0.07244690    -0.14500
H241        H  0.49982446  0.87256735  0.12731598     0.20900
H242        H  0.36597279  0.83423512  0.08399158     0.16900
H243        H  0.34416252  0.77509159  0.13712108     0.19400
H244        H  0.52151610  0.93338535  0.07773952     0.12800
C245        C  0.45419004  0.87180289  0.42550990     0.16700
C246        C  0.44841371  0.83654445  0.41044501    -0.32400
C247        C  0.42101498  0.81873209  0.37976678     0.21100
C248        C  0.40005314  0.83513857  0.36512961     0.03300
C249        C  0.40591253  0.87040554  0.38007609    -0.22100
C250        C  0.43356051  0.88838003  0.41039740     0.12400
S251        S  0.48655292  0.89830858  0.46213210    -0.05800
C252        C  0.47217390  0.93212855  0.45689324    -0.09200
C253        C  0.44394029  0.92315800  0.42809458    -0.25800
S254        S  0.36853640  0.80948085  0.32766813    -0.03000
C255        C  0.38407554  0.77647282  0.33121237    -0.16500
C256        C  0.41203426  0.78497457  0.36028138    -0.14500
H257        H  0.46481060  0.82377757  0.42183576     0.20900
H258        H  0.38990409  0.88344245  0.36829210     0.16900
H259        H  0.43171912  0.94113335  0.42059537     0.19400
H260        H  0.42546954  0.76780223  0.36631144     0.12800
O261        O  0.34649159  0.61263752  0.72162442    -0.81100
C262        C  0.37020040  0.74393274  0.80291893     0.98300
O263        O  0.38632932  0.72373398  0.80071299    -0.70200
O264        O  0.39182158  0.66179348  0.78800445    -0.73800
Al265      Al  0.38614222  0.69612119  0.75356917     1.49000
C266        C  0.36923834  0.63376325  0.80940211     0.93500
O267        O  0.26842137  0.61411860  0.78472037    -0.80000
O268        O  0.26984956  0.65914952  0.71134947    -0.73600
Al269      Al  0.30993961  0.61860424  0.75314457     1.90100
O270        O  0.27888553  0.67296078  0.79299959    -0.72600
O271        O  0.33653493  0.72261908  0.69791167    -0.72500
O272        O  0.34287586  0.73783751  0.77955100    -0.78100
O273        O  0.39351735  0.73697547  0.71994127    -0.76400
O274        O  0.33491097  0.67006020  0.75084909    -1.12500
O275        O  0.39123222  0.67152672  0.70650864    -0.71700
C276        C  0.37507581  0.63564196  0.70069142     0.99000
C277        C  0.26087818  0.63770064  0.80199673     0.95400
Al278      Al  0.30919632  0.69577644  0.74585788     1.55600
O279        O  0.33353633  0.61710204  0.80306637    -0.76300
C280        C  0.37271686  0.74274228  0.69593417     0.99600
C281        C  0.26383745  0.62855198  0.69400394     0.94500
O282        O  0.28264532  0.61230592  0.70388809    -0.81600
O283        O  0.61430613  0.33459126  0.79923487    -0.81100
C284        C  0.74214480  0.37173893  0.69602536     0.98300
O285        O  0.73613471  0.39401966  0.71793526    -0.70200
O286        O  0.67039110  0.39096004  0.70240594    -0.73800
Al287      Al  0.69443069  0.38765842  0.75072437     1.49000
C288        C  0.63459944  0.37477837  0.69660119     0.93500
O289        O  0.61475974  0.28338037  0.70185151    -0.80000
O290        O  0.67220887  0.28388145  0.79715229    -0.73600
Al291      Al  0.61780933  0.31042327  0.75054269     1.90100
O292        O  0.66009231  0.26985835  0.71592960    -0.72600
O293        O  0.73680017  0.34677600  0.78186806    -0.72500
O294        O  0.72230036  0.33572233  0.70033908    -0.78100
O295        O  0.72127278  0.39020271  0.79919279    -0.76400
O296        O  0.66915975  0.33637448  0.75006634    -1.12500
O297        O  0.65873197  0.39318099  0.78362531    -0.71700
C298        C  0.63031745  0.37052287  0.80473285     0.99000
C299        C  0.63169633  0.26455338  0.69493632     0.95400
Al300      Al  0.69545033  0.31115564  0.74893217     1.55600
O301        O  0.61170355  0.34613363  0.71754200    -0.76300
C302        C  0.74151253  0.37446260  0.80405090     0.99600
C303        C  0.63670691  0.26414398  0.80418187     0.94500
O304        O  0.61283766  0.26898292  0.78377577    -0.81600
C305        C  0.03663305  0.51482701  0.52015612     0.03000
C306        C  0.03772829  0.50875780  0.97824692     0.03000
C307        C  0.00329091  0.48681289  0.95701481    -0.17600
C308        C  0.96764547  0.47104012  0.97651783     0.03000
C309        C  0.96637198  0.47609992  0.51866533     0.03000
C310        C  0.00092411  0.49860980  0.53986025    -0.17600
H311        H  0.00012052  0.50235157  0.57227326     0.05000
H312        H  0.00422440  0.48325236  0.92457290     0.05000
C313        C  0.46903475  0.50568397  0.52364607     0.03000
C314        C  0.47302071  0.51005413  0.98132760     0.03000
C315        C  0.49300708  0.49490918  0.96022782    -0.17600
C316        C  0.50804535  0.47451229  0.98059228     0.03000
C317        C  0.50412876  0.47037204  0.52294781     0.03000
C318        C  0.48450244  0.48580906  0.54388521    -0.17600
H319        H  0.48195369  0.48303448  0.57651306     0.05000
H320        H  0.49526017  0.49740420  0.92757059     0.05000
C321        C  0.49021856  0.96857958  0.98000401     0.03000
C322        C  0.49523221  0.96905988  0.52220325     0.03000
C323        C  0.51781850  0.00429782  0.54205077    -0.17600
C324        C  0.53309843  0.03929177  0.52100349     0.03000
C325        C  0.52555114  0.03884693  0.97916770     0.03000
C326        C  0.50462973  0.00343896  0.95913011    -0.17600
H327        H  0.50038266  0.00301266  0.92670500     0.05000
H328        H  0.52164545  0.00459307  0.57454109     0.05000
C329        C  0.58603413  0.19003330  0.60980470     0.16700
C330        C  0.56241007  0.16510260  0.57938182    -0.32400
C331        C  0.56630109  0.13298868  0.57015744     0.21100
C332        C  0.59307539  0.12637776  0.58963125     0.03300
C333        C  0.61743283  0.15187184  0.61920367    -0.22100
C334        C  0.61295235  0.18348877  0.62902843     0.12400
S335        S  0.58303747  0.22831466  0.62858004    -0.05800
C336        C  0.61817071  0.23521838  0.66287145    -0.09200
C337        C  0.63177219  0.20958485  0.65912903    -0.25800
S338        S  0.59125635  0.08426692  0.57639479    -0.03000
C339        C  0.55409102  0.07553237  0.54416016    -0.16500
C340        C  0.54391496  0.10393013  0.54390935    -0.14500
H341        H  0.54088995  0.16966061  0.56470304     0.20900
H342        H  0.63790162  0.14647200  0.63501392     0.16900
H343        H  0.65329521  0.20913662  0.67850519     0.19400
H344        H  0.52046317  0.10266861  0.52650443     0.12800
C345        C  0.61451094  0.18890560  0.88700894     0.16700
C346        C  0.61604331  0.16449088  0.91634653    -0.32400
C347        C  0.58140257  0.13179786  0.92725189     0.21100
C348        C  0.54671833  0.12408170  0.91015676     0.03300
C349        C  0.54508664  0.14890324  0.88149027    -0.22100
C350        C  0.57977032  0.18125619  0.87014711     0.12400
S351        S  0.65360409  0.22823875  0.86721035    -0.05800
C352        C  0.62284007  0.23431760  0.83571818    -0.09200
C353        C  0.58432447  0.20741292  0.84096924    -0.25800
S354        S  0.50822899  0.08184777  0.92544177    -0.03000
C355        C  0.53909691  0.07444021  0.95528673    -0.16500
C356        C  0.57718764  0.10344339  0.95340168    -0.14500
H357        H  0.64316918  0.17009917  0.92919419     0.20900
H358        H  0.51810274  0.14264315  0.86772432     0.16900
H359        H  0.56101075  0.20625836  0.82339200     0.19400
H360        H  0.60059230  0.10321971  0.96945400     0.12800
C361        C  0.81872115  0.42199996  0.88613268     0.16700
C362        C  0.84372976  0.44525066  0.91672455    -0.32400
C363        C  0.87595604  0.44138839  0.92498610     0.21100
C364        C  0.88291986  0.41544954  0.90394322     0.03300
C365        C  0.85762570  0.39179891  0.87386901    -0.22100
C366        C  0.82556997  0.39580241  0.86549564     0.12400
S367        S  0.77923010  0.42379141  0.86966090    -0.05800
C368        C  0.77203649  0.38886704  0.83469599    -0.09200
C369        C  0.79872004  0.37649726  0.83625509    -0.25800
S370        S  0.92454234  0.41644305  0.91699363    -0.03000
C371        C  0.93245252  0.45185284  0.95159741    -0.16500
C372        C  0.90429453  0.46233048  0.95249430    -0.14500
H373        H  0.83873403  0.46595317  0.93279171     0.20900
H374        H  0.86309356  0.37172302  0.85716130     0.16900
H375        H  0.79910122  0.35524329  0.81621778     0.19400
H376        H  0.90502408  0.48466848  0.97165492     0.12800
C377        C  0.86951557  0.41383203  0.57269665     0.16700
C378        C  0.83482346  0.38412287  0.58837415    -0.32400
C379        C  0.81624522  0.39391730  0.61830744     0.21100
C380        C  0.83133623  0.43170496  0.63129246     0.03300
C381        C  0.86577430  0.46124530  0.61560096    -0.22100
C382        C  0.88460412  0.45139984  0.58635511     0.12400
S383        S  0.89738320  0.40807035  0.53738311    -0.05800
C384        C  0.92970400  0.45679526  0.54139731    -0.09200
C385        C  0.91911847  0.47606550  0.56873896    -0.25800
S386        S  0.80551127  0.43811971  0.66813457    -0.03000
C387        C  0.77406887  0.38925623  0.66692949    -0.16500
C388        C  0.78317840  0.36919655  0.63881843    -0.14500
H389        H  0.82321915  0.35465575  0.57821771     0.20900
H390        H  0.87774087  0.49059837  0.62628544     0.16900
H391        H  0.93587915  0.50655460  0.57538026     0.19400
H392        H  0.76698718  0.33833253  0.63419996     0.12800
C393        C  0.60545882  0.42363412  0.61488687     0.16700
C394        C  0.60369291  0.44706932  0.58443904    -0.32400
C395        C  0.56736131  0.44185266  0.57439912     0.21100
C396        C  0.53435687  0.41456695  0.59381342     0.03300
C397        C  0.53607571  0.39085810  0.62371368    -0.22100
C398        C  0.57226941  0.39607724  0.63373712     0.12400
S399        S  0.64670034  0.42632925  0.63303753    -0.05800
C400        C  0.61871619  0.38977095  0.66608982    -0.09200
C401        C  0.57965437  0.37647214  0.66285041    -0.25800
S402        S  0.49335444  0.41412790  0.57938654    -0.03000
C403        C  0.52074193  0.45087457  0.54648749    -0.16500
C404        C  0.55964258  0.46264915  0.54682043    -0.14500
H405        H  0.62950281  0.46881537  0.56974582     0.20900
H406        H  0.51036124  0.36971562  0.63905911     0.16900
H407        H  0.55777882  0.35409998  0.68146316     0.19400
H408        H  0.58117659  0.48604837  0.52892516     0.12800
C409        C  0.54045219  0.41179086  0.92340849     0.16700
C410        C  0.54408898  0.38179034  0.90571362    -0.32400
C411        C  0.57540762  0.39190061  0.87978033     0.21100
C412        C  0.60210065  0.43018468  0.87247139     0.03300
C413        C  0.59846688  0.46006197  0.89007626    -0.22100
C414        C  0.56690326  0.44998710  0.91533289     0.12400
S415        S  0.50426097  0.40577798  0.95511695    -0.05800
C416        C  0.52484896  0.45518820  0.95693196    -0.09200
C417        C  0.55791556  0.47502833  0.93419499    -0.25800
S418        S  0.63742477  0.43691422  0.83953991    -0.03000
C419        C  0.61583219  0.38761639  0.83458097    -0.16500
C420        C  0.58317911  0.36714849  0.85807207    -0.14500
H421        H  0.52315706  0.35195396  0.91143737     0.20900
H422        H  0.61902966  0.48989164  0.88379671     0.16900
H423        H  0.57453180  0.50607119  0.93184584     0.19400
H424        H  0.56555218  0.33608661  0.85832481     0.12800
C425        C  0.12257716  0.57786920  0.58906360     0.16700
C426        C  0.14847389  0.60493001  0.61666264    -0.32400
C427        C  0.18003831  0.60130198  0.62869554     0.21100
C428        C  0.18576061  0.57208646  0.61394150     0.03300
C429        C  0.16020470  0.54538628  0.58565981    -0.22100
C430        C  0.12852995  0.54899180  0.57364087     0.12400
S431        S  0.08131679  0.57606204  0.57273050    -0.05800
C432        C  0.07214977  0.53629124  0.54433510    -0.09200
C433        C  0.09976725  0.52518603  0.54759290    -0.25800
S434        S  0.22465411  0.57147965  0.63449211    -0.03000
C435        C  0.23334523  0.61117884  0.66301419    -0.16500
C436        C  0.20736514  0.62395213  0.65646673    -0.14500
H437        H  0.14379014  0.62738169  0.62889313     0.20900
H438        H  0.16438025  0.52237001  0.57416345     0.16900
H439        H  0.09828205  0.50042980  0.53249337     0.19400
H440        H  0.20772163  0.64789085  0.67220564     0.12800
C441        C  0.12482801  0.53938034  0.90945857     0.16700
C442        C  0.15117347  0.54074364  0.88093035    -0.32400
C443        C  0.17976555  0.57702411  0.86792863     0.21100
C444        C  0.18234650  0.61070015  0.88263410     0.03300
C445        C  0.15624454  0.60937308  0.91180586    -0.22100
C446        C  0.12743937  0.57290461  0.92479904     0.12400
S447        S  0.08658947  0.49796382  0.92667866    -0.05800
C448        C  0.07399533  0.52590353  0.95526188    -0.09200
C449        C  0.09836264  0.56529126  0.95154888    -0.25800
S450        S  0.21845036  0.65172055  0.86121525    -0.03000
C451        C  0.23002800  0.62292028  0.83243720    -0.16500
C452        C  0.20704978  0.58384381  0.83945978    -0.14500
H453        H  0.14899990  0.51459138  0.86873791     0.20900
H454        H  0.15785819  0.63550494  0.92327792     0.16900
H455        H  0.09411089  0.58703696  0.96641040     0.19400
H456        H  0.20973115  0.56141546  0.82396001     0.12800
C457        C  0.42169923  0.60637173  0.61660140     0.16700
C458        C  0.44431830  0.60459258  0.58520602    -0.32400
C459        C  0.43965213  0.56833335  0.57542360     0.21100
C460        C  0.41343551  0.53535904  0.59572343     0.03300
C461        C  0.39032960  0.53703671  0.62639930    -0.22100
C462        C  0.39524398  0.57320905  0.63640793     0.12400
S463        S  0.42451379  0.64768080  0.63510112    -0.05800
C464        C  0.38965658  0.61974679  0.66973036    -0.09200
C465        C  0.37661064  0.58065653  0.66660316    -0.25800
S466        S  0.41382403  0.49457288  0.58162831    -0.03000
C467        C  0.44957653  0.52204935  0.54779264    -0.16500
C468        C  0.46033951  0.56078323  0.54750962    -0.14500
H469        H  0.46528471  0.63038867  0.56983158     0.20900
H470        H  0.37012070  0.51138648  0.64253673     0.16900
H471        H  0.35514308  0.55883700  0.68603242     0.19400
H472        H  0.48303762  0.58238385  0.52898269     0.12800
C473        C  0.41061735  0.54433767  0.92744065     0.16700
C474        C  0.38066788  0.54838335  0.91066751    -0.32400
C475        C  0.39069328  0.58017602  0.88553870     0.21100
C476        C  0.42887809  0.60716263  0.87842981     0.03300
C477        C  0.45874486  0.60328101  0.89537418    -0.22100
C478        C  0.44872933  0.57101540  0.91951091     0.12400
S479        S  0.40456316  0.50706771  0.95735900    -0.05800
C480        C  0.45383938  0.52741338  0.95854455    -0.09200
C481        C  0.47369252  0.56129212  0.93702175    -0.25800
S482        S  0.43545812  0.64256968  0.84572962    -0.03000
C483        C  0.38625122  0.62036845  0.84034089    -0.16500
C484        C  0.36592340  0.58770805  0.86382402    -0.14500
H485        H  0.35090225  0.52715525  0.91610262     0.20900
H486        H  0.48850405  0.62394800  0.88904800     0.16900
H487        H  0.50467403  0.57795645  0.93460571     0.19400
H488        H  0.33497290  0.56959337  0.86362765     0.12800
C489        C  0.43916903  0.83103711  0.63298248     0.16700
C490        C  0.47089102  0.86417871  0.61772907    -0.32400
C491        C  0.46380391  0.88630357  0.59013404     0.21100
C492        C  0.42674481  0.87557234  0.57783486     0.03300
C493        C  0.39493015  0.84237667  0.59321787    -0.22100
C494        C  0.40198589  0.82042752  0.62127368     0.12400
S495        S  0.44209897  0.80152955  0.66770864    -0.05800
C496        C  0.39260175  0.77465066  0.66722906    -0.09200
C497        C  0.37492376  0.78787756  0.64088635    -0.25800
S498        S  0.42427494  0.90610954  0.54376895    -0.03000
C499        C  0.47365925  0.93362786  0.54629049    -0.16500
C500        C  0.49087957  0.91985376  0.57244687    -0.14500
H501        H  0.49982440  0.87256733  0.62731592     0.20900
H502        H  0.36597274  0.83423513  0.58399156     0.16900
H503        H  0.34416241  0.77509158  0.63712106     0.19400
H504        H  0.52151600  0.93338530  0.57773946     0.12800
C505        C  0.45419002  0.87180288  0.92550994     0.16700
C506        C  0.44841368  0.83654447  0.91044502    -0.32400
C507        C  0.42101496  0.81873209  0.87976681     0.21100
C508        C  0.40005310  0.83513856  0.86512965     0.03300
C509        C  0.40591251  0.87040549  0.88007617    -0.22100
C510        C  0.43356046  0.88838002  0.91039745     0.12400
S511        S  0.48655290  0.89830858  0.96213213    -0.05800
C512        C  0.47217387  0.93212854  0.95689329    -0.09200
C513        C  0.44394025  0.92315795  0.92809465    -0.25800
S514        S  0.36853636  0.80948084  0.82766818    -0.03000
C515        C  0.38407553  0.77647284  0.83121238    -0.16500
C516        C  0.41203426  0.78497459  0.86028138    -0.14500
H517        H  0.46481063  0.82377756  0.92183578     0.20900
H518        H  0.38990394  0.88344249  0.86829212     0.16900
H519        H  0.43171902  0.94113338  0.92059542     0.19400
H520        H  0.42546956  0.76780225  0.86631143     0.12800
loop_ 
_geom_bond_atom_site_label_1 
_geom_bond_atom_site_label_2 
_geom_bond_distance 
_geom_bond_site_symmetry_2 
_ccdc_geom_bond_type 
O1           C16   1.263       .  A
O1           Al9   1.908       .  S
C2           O12   1.262       .  A
C2            O3   1.264       .  A
C2          C255   1.468       .  S
O3           Al5   1.906       .  S
O4            C6   1.255       .  A
O4           Al5   1.887       .  S
Al5          O13   1.879       .  S
Al5          O15   1.904       .  S
Al5          O14   1.786       .  S
C6           O19   1.261       .  A
C6          C223   1.473       .  S
O7           C17   1.261       .  A
O7           Al9   1.897       .  S
O8           C21   1.261       .  A
O8          Al18   1.907       .  S
Al9          O22   1.909       .  S
Al9          O19   1.920       .  S
Al9          O14   1.789       .  S
O10          C17   1.262       .  A
O10         Al18   1.910       .  S
O11          C20   1.264       .  A
O11         Al18   1.927       .  S
O12         Al18   1.906       .  S
O13          C20   1.255       .  A
O14         Al18   1.791       .  S
O15          C16   1.262       .  A
C16         C204   1.470       .  S
C17         C191   1.473       .  S
C20         C236   1.471       .  S
C21          O22   1.261       .  A
C21         C175   1.477       .  S
O23          C38   1.263       .  A
O23         Al31   1.917       .  S
C24          O34   1.262       .  A
C24          O25   1.260       .  A
C24         C127   1.473       .  S
O25         Al27   1.902       .  S
O26          C28   1.262       .  A
O26         Al27   1.906       .  S
Al27         O35   1.906       .  S
Al27         O37   1.896       .  S
Al27         O36   1.782       .  S
C28          O41   1.263       .  A
C28         C140   1.473       .  S
O29          C39   1.261       .  A
O29         Al31   1.908       .  S
O30          C43   1.260       .  A
O30         Al40   1.899       .  S
Al31         O44   1.920       .  S
Al31         O41   1.912       .  S
Al31         O36   1.788       .  S
O32          C39   1.259       .  A
O32         Al40   1.896       .  S
O33          C42   1.261       .  A
O33         Al40   1.901       .  S
O34         Al40   1.915       .  S
O35          C42   1.262       .  A
O36         Al40   1.786       .  S
O37          C38   1.259       .  A
C38         C159   1.473       .  S
C39          C76   1.469       .  S
C42         C108   1.468       .  S
C43          O44   1.264       .  A
C43          C92   1.474       .  S
C45         C172   1.479       .  S
C45          C50   1.406       .  A
C45         C306   1.411   1_554  A
C46         C188   1.475       .  S
C46          C47   1.402       .  A
C46         C305   1.411       .  A
C47          C48   1.401   1_455  A
C47          H52   1.085       .  S
C48         C111   1.477       .  S
C48         C309   1.413       .  A
C49         C124   1.483       .  S
C49          C50   1.407   1_655  A
C49         C308   1.413   1_554  A
C50          H51   1.085       .  S
C53         C207   1.477       .  S
C53          C58   1.401       .  A
C53         C314   1.411   1_554  A
C54         C220   1.476       .  S
C54          C55   1.406       .  A
C54         C313   1.411       .  A
C55          C56   1.407       .  A
C55          H60   1.085       .  S
C56         C156   1.476       .  S
C56         C317   1.411       .  A
C57         C143   1.477       .  S
C57          C58   1.401       .  A
C57         C316   1.411   1_554  A
C58          H59   1.085       .  S
C61         C252   1.477       .  S
C61          C66   1.401   1_565  A
C61         C322   1.410       .  A
C62         C239   1.477       .  S
C62          C63   1.402   1_565  A
C62         C321   1.410   1_554  A
C63          C64   1.406       .  A
C63          H68   1.085       .  S
C64          C79   1.476       .  S
C64         C325   1.415   1_554  A
C65          C95   1.479       .  S
C65          C66   1.402       .  A
C65         C324   1.415       .  A
C66          H67   1.085       .  S
C69          C74   1.387       .  A
C69          C70   1.401       .  A
C69          S75   1.710       .  A
C70          C71   1.402       .  A
C70          H81   1.083       .  S
C71          C80   1.367       .  A
C71          C72   1.387       .  A
C72          C73   1.399       .  A
C72          S78   1.706       .  A
C73          C74   1.401       .  A
C73          H82   1.083       .  S
C74          C77   1.365       .  A
S75          C76   1.722       .  A
C76          C77   1.386       .  A
C77          H83   1.083       .  S
S78          C79   1.722       .  A
C79          C80   1.386       .  A
C80          H84   1.083       .  S
C85          C90   1.387       .  A
C85          C86   1.403       .  A
C85          S91   1.708       .  A
C86          C87   1.403       .  A
C86          H97   1.083       .  S
C87          C96   1.372       .  A
C87          C88   1.387       .  A
C88          C89   1.401       .  A
C88          S94   1.705       .  A
C89          C90   1.402       .  A
C89          H98   1.083       .  S
C90          C93   1.371       .  A
S91          C92   1.724       .  A
C92          C93   1.387       .  A
C93          H99   1.083       .  S
S94          C95   1.722       .  A
C95          C96   1.387       .  A
C96         H100   1.083       .  S
C101        C106   1.387       .  A
C101        C102   1.401       .  A
C101        S107   1.711       .  A
C102        C103   1.403       .  A
C102        H113   1.082       .  S
C103        C112   1.368       .  A
C103        C104   1.387       .  A
C104        C105   1.399       .  A
C104        S110   1.706       .  A
C105        C106   1.401       .  A
C105        H114   1.082       .  S
C106        C109   1.365       .  A
S107        C108   1.722       .  A
C108        C109   1.386       .  A
C109        H115   1.083       .  S
S110        C111   1.721       .  A
C111        C112   1.387       .  A
C112        H116   1.083       .  S
C117        C122   1.387       .  A
C117        C118   1.406       .  A
C117        S123   1.709       .  A
C118        C119   1.406       .  A
C118        H129   1.083       .  S
C119        C128   1.378       .  A
C119        C120   1.387       .  A
C120        C121   1.398       .  A
C120        S126   1.699       .  A
C121        C122   1.398       .  A
C121        H130   1.083       .  S
C122        C125   1.369       .  A
S123        C124   1.729       .  A
C124        C125   1.383       .  A
C125        H131   1.083       .  S
S126        C127   1.722       .  A
C127        C128   1.389       .  A
C128        H132   1.083       .  S
C133        C138   1.386       .  A
C133        C134   1.405       .  A
C133        S139   1.713       .  A
C134        C135   1.406       .  A
C134        H145   1.083       .  S
C135        C144   1.373       .  A
C135        C136   1.387       .  A
C136        C137   1.399       .  A
C136        S142   1.705       .  A
C137        C138   1.400       .  A
C137        H146   1.083       .  S
C138        C141   1.367       .  A
S139        C140   1.725       .  A
C140        C141   1.386       .  A
C141        H147   1.083       .  S
S142        C143   1.720       .  A
C143        C144   1.388       .  A
C144        H148   1.083       .  S
C149        C154   1.387       .  A
C149        C150   1.406       .  A
C149        S155   1.708       .  A
C150        C151   1.405       .  A
C150        H161   1.083       .  S
C151        C160   1.377       .  A
C151        C152   1.387       .  A
C152        C153   1.400       .  A
C152        S158   1.699       .  A
C153        C154   1.399       .  A
C153        H162   1.083       .  S
C154        C157   1.371       .  A
S155        C156   1.724       .  A
C156        C157   1.383       .  A
C157        H163   1.083       .  S
S158        C159   1.724       .  A
C159        C160   1.388       .  A
C160        H164   1.083       .  S
C165        C170   1.387       .  A
C165        C166   1.401       .  A
C165        S171   1.709       .  A
C166        C167   1.403       .  A
C166        H177   1.083       .  S
C167        C176   1.370       .  A
C167        C168   1.386       .  A
C168        C169   1.405       .  A
C168        S174   1.714       .  A
C169        C170   1.406       .  A
C169        H178   1.083       .  S
C170        C173   1.373       .  A
S171        C172   1.721       .  A
C172        C173   1.388       .  A
C173        H179   1.083       .  S
S174        C175   1.725       .  A
C175        C176   1.388       .  A
C176        H180   1.083       .  S
C181        C186   1.388       .  A
C181        C182   1.397       .  A
C181        S187   1.704       .  A
C182        C183   1.399       .  A
C182        H193   1.083       .  S
C183        C192   1.365       .  A
C183        C184   1.386       .  A
C184        C185   1.405       .  A
C184        S190   1.714       .  A
C185        C186   1.406       .  A
C185        H194   1.083       .  S
C186        C189   1.372       .  A
S187        C188   1.719       .  A
C188        C189   1.388       .  A
C189        H195   1.083       .  S
S190        C191   1.725       .  A
C191        C192   1.385       .  A
C192        H196   1.083       .  S
C197        C202   1.387       .  A
C197        C198   1.403       .  A
C197        S203   1.712       .  A
C198        C199   1.405       .  A
C198        H209   1.083       .  S
C199        C208   1.371       .  A
C199        C200   1.387       .  A
C200        C201   1.398       .  A
C200        S206   1.704       .  A
C201        C202   1.399       .  A
C201        H210   1.083       .  S
C202        C205   1.365       .  A
S203        C204   1.724       .  A
C204        C205   1.385       .  A
C205        H211   1.083       .  S
S206        C207   1.720       .  A
C207        C208   1.388       .  A
C208        H212   1.083       .  S
C213        C218   1.387       .  A
C213        C214   1.405       .  A
C213        S219   1.707       .  A
C214        C215   1.404       .  A
C214        H225   1.083       .  S
C215        C224   1.377       .  A
C215        C216   1.387       .  A
C216        C217   1.400       .  A
C216        S222   1.699       .  A
C217        C218   1.399       .  A
C217        H226   1.083       .  S
C218        C221   1.371       .  A
S219        C220   1.724       .  A
C220        C221   1.383       .  A
C221        H227   1.083       .  S
S222        C223   1.724       .  A
C223        C224   1.387       .  A
C224        H228   1.083       .  S
C229        C234   1.388       .  A
C229        C230   1.400       .  A
C229        S235   1.696       .  A
C230        C231   1.398       .  A
C230        H241   1.083       .  S
C231        C240   1.371       .  A
C231        C232   1.388       .  A
C232        C233   1.404       .  A
C232        S238   1.704       .  A
C233        C234   1.403       .  A
C233        H242   1.083       .  S
C234        C237   1.377       .  A
S235        C236   1.725       .  A
C236        C237   1.386       .  A
C237        H243   1.083       .  S
S238        C239   1.725       .  A
C239        C240   1.383       .  A
C240        H244   1.083       .  S
C245        C250   1.387       .  A
C245        C246   1.402       .  A
C245        S251   1.704       .  A
C246        C247   1.402       .  A
C246        H257   1.083       .  S
C247        C256   1.372       .  A
C247        C248   1.388       .  A
C248        C249   1.399       .  A
C248        S254   1.701       .  A
C249        C250   1.399       .  A
C249        H258   1.083       .  S
C250        C253   1.369       .  A
S251        C252   1.725       .  A
C252        C253   1.384       .  A
C253        H259   1.083       .  S
S254        C255   1.723       .  A
C255        C256   1.385       .  A
C256        H260   1.083       .  S
O261        C276   1.263       .  A
O261       Al269   1.908       .  S
C262        O272   1.262       .  A
C262        O263   1.264       .  A
C262        C515   1.468       .  S
O263       Al265   1.906       .  S
O264        C266   1.255       .  A
O264       Al265   1.887       .  S
Al265       O273   1.879       .  S
Al265       O275   1.904       .  S
Al265       O274   1.786       .  S
C266        O279   1.261       .  A
C266        C483   1.473       .  S
O267        C277   1.261       .  A
O267       Al269   1.897       .  S
O268        C281   1.261       .  A
O268       Al278   1.907       .  S
Al269       O282   1.909       .  S
Al269       O279   1.920       .  S
Al269       O274   1.789       .  S
O270        C277   1.262       .  A
O270       Al278   1.910       .  S
O271        C280   1.264       .  A
O271       Al278   1.927       .  S
O272       Al278   1.906       .  S
O273        C280   1.255       .  A
O274       Al278   1.791       .  S
O275        C276   1.262       .  A
C276        C464   1.470       .  S
C277        C451   1.473       .  S
C280        C496   1.471       .  S
C281        O282   1.261       .  A
C281        C435   1.477       .  S
O283        C298   1.263       .  A
O283       Al291   1.917       .  S
C284        O294   1.262       .  A
C284        O285   1.260       .  A
C284        C387   1.473       .  S
O285       Al287   1.902       .  S
O286        C288   1.262       .  A
O286       Al287   1.906       .  S
Al287       O295   1.906       .  S
Al287       O297   1.896       .  S
Al287       O296   1.782       .  S
C288        O301   1.263       .  A
C288        C400   1.473       .  S
O289        C299   1.261       .  A
O289       Al291   1.908       .  S
O290        C303   1.260       .  A
O290       Al300   1.899       .  S
Al291       O304   1.920       .  S
Al291       O301   1.912       .  S
Al291       O296   1.788       .  S
O292        C299   1.259       .  A
O292       Al300   1.896       .  S
O293        C302   1.261       .  A
O293       Al300   1.901       .  S
O294       Al300   1.915       .  S
O295        C302   1.262       .  A
O296       Al300   1.786       .  S
O297        C298   1.259       .  A
C298        C419   1.473       .  S
C299        C336   1.469       .  S
C302        C368   1.468       .  S
C303        O304   1.264       .  A
C303        C352   1.474       .  S
C305        C432   1.479       .  S
C305        C310   1.406       .  A
C306        C448   1.475       .  S
C306        C307   1.402       .  A
C307        C308   1.401   1_455  A
C307        H312   1.085       .  S
C308        C371   1.477       .  S
C309        C384   1.483       .  S
C309        C310   1.407   1_655  A
C310        H311   1.085       .  S
C313        C467   1.477       .  S
C313        C318   1.401       .  A
C314        C480   1.476       .  S
C314        C315   1.406       .  A
C315        C316   1.407       .  A
C315        H320   1.085       .  S
C316        C416   1.476       .  S
C317        C403   1.477       .  S
C317        C318   1.401       .  A
C318        H319   1.085       .  S
C321        C512   1.477       .  S
C321        C326   1.401   1_565  A
C322        C499   1.477       .  S
C322        C323   1.402   1_565  A
C323        C324   1.406       .  A
C323        H328   1.085       .  S
C324        C339   1.476       .  S
C325        C355   1.479       .  S
C325        C326   1.402       .  A
C326        H327   1.085       .  S
C329        C334   1.387       .  A
C329        C330   1.401       .  A
C329        S335   1.710       .  A
C330        C331   1.402       .  A
C330        H341   1.083       .  S
C331        C340   1.367       .  A
C331        C332   1.387       .  A
C332        C333   1.399       .  A
C332        S338   1.706       .  A
C333        C334   1.401       .  A
C333        H342   1.083       .  S
C334        C337   1.365       .  A
S335        C336   1.722       .  A
C336        C337   1.386       .  A
C337        H343   1.083       .  S
S338        C339   1.722       .  A
C339        C340   1.386       .  A
C340        H344   1.083       .  S
C345        C350   1.387       .  A
C345        C346   1.403       .  A
C345        S351   1.708       .  A
C346        C347   1.403       .  A
C346        H357   1.083       .  S
C347        C356   1.372       .  A
C347        C348   1.387       .  A
C348        C349   1.401       .  A
C348        S354   1.705       .  A
C349        C350   1.402       .  A
C349        H358   1.083       .  S
C350        C353   1.371       .  A
S351        C352   1.724       .  A
C352        C353   1.387       .  A
C353        H359   1.083       .  S
S354        C355   1.722       .  A
C355        C356   1.387       .  A
C356        H360   1.083       .  S
C361        C366   1.387       .  A
C361        C362   1.401       .  A
C361        S367   1.711       .  A
C362        C363   1.403       .  A
C362        H373   1.082       .  S
C363        C372   1.368       .  A
C363        C364   1.387       .  A
C364        C365   1.399       .  A
C364        S370   1.706       .  A
C365        C366   1.401       .  A
C365        H374   1.082       .  S
C366        C369   1.365       .  A
S367        C368   1.722       .  A
C368        C369   1.386       .  A
C369        H375   1.083       .  S
S370        C371   1.721       .  A
C371        C372   1.387       .  A
C372        H376   1.083       .  S
C377        C382   1.387       .  A
C377        C378   1.406       .  A
C377        S383   1.709       .  A
C378        C379   1.406       .  A
C378        H389   1.083       .  S
C379        C388   1.378       .  A
C379        C380   1.387       .  A
C380        C381   1.398       .  A
C380        S386   1.699       .  A
C381        C382   1.398       .  A
C381        H390   1.083       .  S
C382        C385   1.369       .  A
S383        C384   1.729       .  A
C384        C385   1.383       .  A
C385        H391   1.083       .  S
S386        C387   1.722       .  A
C387        C388   1.389       .  A
C388        H392   1.083       .  S
C393        C398   1.386       .  A
C393        C394   1.405       .  A
C393        S399   1.713       .  A
C394        C395   1.406       .  A
C394        H405   1.083       .  S
C395        C404   1.373       .  A
C395        C396   1.387       .  A
C396        C397   1.399       .  A
C396        S402   1.705       .  A
C397        C398   1.400       .  A
C397        H406   1.083       .  S
C398        C401   1.367       .  A
S399        C400   1.725       .  A
C400        C401   1.386       .  A
C401        H407   1.083       .  S
S402        C403   1.720       .  A
C403        C404   1.388       .  A
C404        H408   1.083       .  S
C409        C414   1.387       .  A
C409        C410   1.406       .  A
C409        S415   1.708       .  A
C410        C411   1.405       .  A
C410        H421   1.083       .  S
C411        C420   1.377       .  A
C411        C412   1.387       .  A
C412        C413   1.400       .  A
C412        S418   1.699       .  A
C413        C414   1.399       .  A
C413        H422   1.083       .  S
C414        C417   1.371       .  A
S415        C416   1.724       .  A
C416        C417   1.383       .  A
C417        H423   1.083       .  S
S418        C419   1.724       .  A
C419        C420   1.388       .  A
C420        H424   1.083       .  S
C425        C430   1.387       .  A
C425        C426   1.401       .  A
C425        S431   1.709       .  A
C426        C427   1.403       .  A
C426        H437   1.083       .  S
C427        C436   1.370       .  A
C427        C428   1.386       .  A
C428        C429   1.405       .  A
C428        S434   1.714       .  A
C429        C430   1.406       .  A
C429        H438   1.083       .  S
C430        C433   1.373       .  A
S431        C432   1.721       .  A
C432        C433   1.388       .  A
C433        H439   1.083       .  S
S434        C435   1.725       .  A
C435        C436   1.388       .  A
C436        H440   1.083       .  S
C441        C446   1.388       .  A
C441        C442   1.397       .  A
C441        S447   1.704       .  A
C442        C443   1.399       .  A
C442        H453   1.083       .  S
C443        C452   1.365       .  A
C443        C444   1.386       .  A
C444        C445   1.405       .  A
C444        S450   1.714       .  A
C445        C446   1.406       .  A
C445        H454   1.083       .  S
C446        C449   1.372       .  A
S447        C448   1.719       .  A
C448        C449   1.388       .  A
C449        H455   1.083       .  S
S450        C451   1.725       .  A
C451        C452   1.385       .  A
C452        H456   1.083       .  S
C457        C462   1.387       .  A
C457        C458   1.403       .  A
C457        S463   1.712       .  A
C458        C459   1.405       .  A
C458        H469   1.083       .  S
C459        C468   1.371       .  A
C459        C460   1.387       .  A
C460        C461   1.398       .  A
C460        S466   1.704       .  A
C461        C462   1.399       .  A
C461        H470   1.083       .  S
C462        C465   1.365       .  A
S463        C464   1.724       .  A
C464        C465   1.385       .  A
C465        H471   1.083       .  S
S466        C467   1.720       .  A
C467        C468   1.388       .  A
C468        H472   1.083       .  S
C473        C478   1.387       .  A
C473        C474   1.405       .  A
C473        S479   1.707       .  A
C474        C475   1.404       .  A
C474        H485   1.083       .  S
C475        C484   1.377       .  A
C475        C476   1.387       .  A
C476        C477   1.400       .  A
C476        S482   1.699       .  A
C477        C478   1.399       .  A
C477        H486   1.083       .  S
C478        C481   1.371       .  A
S479        C480   1.724       .  A
C480        C481   1.383       .  A
C481        H487   1.083       .  S
S482        C483   1.724       .  A
C483        C484   1.387       .  A
C484        H488   1.083       .  S
C489        C494   1.388       .  A
C489        C490   1.400       .  A
C489        S495   1.696       .  A
C490        C491   1.398       .  A
C490        H501   1.083       .  S
C491        C500   1.371       .  A
C491        C492   1.388       .  A
C492        C493   1.404       .  A
C492        S498   1.704       .  A
C493        C494   1.403       .  A
C493        H502   1.083       .  S
C494        C497   1.377       .  A
S495        C496   1.725       .  A
C496        C497   1.386       .  A
C497        H503   1.083       .  S
S498        C499   1.725       .  A
C499        C500   1.383       .  A
C500        H504   1.083       .  S
C505        C510   1.387       .  A
C505        C506   1.402       .  A
C505        S511   1.704       .  A
C506        C507   1.402       .  A
C506        H517   1.083       .  S
C507        C516   1.372       .  A
C507        C508   1.388       .  A
C508        C509   1.399       .  A
C508        S514   1.701       .  A
C509        C510   1.399       .  A
C509        H518   1.083       .  S
C510        C513   1.369       .  A
S511        C512   1.725       .  A
C512        C513   1.384       .  A
C513        H519   1.083       .  S
S514        C515   1.723       .  A
C515        C516   1.385       .  A
C516        H520   1.083       .  S
