geometry optimzed in LAMMPS
_audit_creation_date              2020-11-30 
_audit_creation_method            'lammps2cif' 
_symmetry_space_group_name_H-M    'P1' 
_symmetry_Int_Tables_number       1 
_symmetry_cell_setting            triclinic 
loop_ 
_symmetry_equiv_pos_as_xyz 
  x,y,z 
_cell_length_a                    51.1898187194647 
_cell_length_b                    51.296249623835934 
_cell_length_c                    32.81289719306457 
_cell_angle_alpha                 90.13775321728484 
_cell_angle_beta                  89.96546762406436 
_cell_angle_gamma                 89.97027535399795 
loop_ 
_atom_site_label 
_atom_site_type_symbol 
_atom_site_fract_x 
_atom_site_fract_y 
_atom_site_fract_z 
_atom_site_charge 
Zn1        Zn  0.50150282  0.09993055  0.30082756     1.49720
Zn2        Zn  0.49916541  0.09411044  0.20241325     1.49360
Zn3        Zn  0.46734197  0.13776733  0.24777018     1.49110
Zn4        Zn  0.03260710  0.13735575  0.24592791     1.49480
O5          O  0.99998348  0.11773611  0.24844569    -1.82070
O6          O  0.50648961  0.06259710  0.29047072    -0.72700
O7          O  0.46657866  0.09685775  0.16893914    -0.72520
O8          O  0.44266177  0.12716592  0.29424756    -0.72040
O9          O  0.49830244  0.05841666  0.22410319    -0.72720
O10         O  0.46751493  0.10011496  0.32998742    -0.72320
O11         O  0.44399748  0.12848954  0.19906811    -0.72900
O12         O  0.02223561  0.17565906  0.24916507    -0.72290
O13         O  0.03158209  0.09608576  0.16802979    -0.73050
O14         O  0.47832901  0.17576520  0.24902929    -0.72440
O15         O  0.05453868  0.12831611  0.19582918    -0.72900
O16         O  0.05772174  0.12535961  0.29063491    -0.72810
O17         O  0.03136612  0.10896472  0.33750486    -0.72600
C18         C  0.50254476  0.04881014  0.25904986     0.79190
C19         C  0.44596430  0.11049746  0.17236399     0.79680
C20         C  0.44554655  0.11053428  0.32267392     0.78640
C21         C  0.00029760  0.18776585  0.24965780     0.79010
C22         C  0.05211741  0.10999621  0.16979438     0.80150
C23         C  0.05417544  0.11441882  0.32497459     0.79200
Zn24       Zn  0.46772937  0.35081043  0.24540393     1.49720
Zn25       Zn  0.50126798  0.38703616  0.30214637     1.49360
Zn26       Zn  0.03305697  0.35092610  0.24439988     1.49110
Zn27       Zn  0.49987439  0.39480473  0.20369063     1.49480
O28         O  0.50038904  0.37047643  0.24822170    -1.82070
O29         O  0.44250240  0.36278427  0.29019537    -0.72700
O30         O  0.03287694  0.37979331  0.33614379    -0.72520
O31         O  0.02255668  0.31267687  0.24865367    -0.72040
O32         O  0.46817110  0.38365674  0.33394023    -0.72720
O33         O  0.47862355  0.31281987  0.24830465    -0.72320
O34         O  0.05866232  0.36383313  0.28789454    -0.72900
O35         O  0.03199612  0.39315496  0.16936462    -0.72290
O36         O  0.50336841  0.42501956  0.29368800    -0.73050
O37         O  0.05425547  0.35924844  0.19295826    -0.72440
O38         O  0.49857326  0.42996065  0.22664644    -0.72900
O39         O  0.46839429  0.39183117  0.16844215    -0.72810
O40         O  0.44575779  0.35906827  0.19470877    -0.72600
C41         C  0.44568425  0.37623046  0.32250382     0.79190
C42         C  0.05552527  0.37499778  0.32225098     0.79680
C43         C  0.50054295  0.30070647  0.24930180     0.78640
C44         C  0.05188499  0.37835000  0.16842085     0.79010
C45         C  0.50089609  0.43914914  0.26233053     0.80150
C46         C  0.44828811  0.37736385  0.16877317     0.79200
Zn47       Zn  0.09781025  0.49524483  0.45557186     1.49720
Zn48       Zn  0.14307878  0.02712472  0.99566895     1.49360
Zn49       Zn  0.10805352  0.49469370  0.05405392     1.49110
Zn50       Zn  0.14269010  0.46223710  0.99463000     1.49480
O51         O  0.12316801  0.49478846  0.99907578    -1.82070
O52         O  0.09961768  0.02777892  0.42204317    -0.72700
O53         O  0.13113367  0.05231883  0.04034729    -0.72520
O54         O  0.06994441  0.49607868  0.04748076    -0.72040
O55         O  0.13440914  0.04896970  0.44530278    -0.72720
O56         O  0.06282292  0.49511470  0.48042445    -0.72320
O57         O  0.11520504  0.02631658  0.08809420    -0.72900
O58         O  0.13058962  0.43638600  0.03811820    -0.72290
O59         O  0.18128660  0.01630525  0.99893928    -0.73050
O60         O  0.11272908  0.46162899  0.08548321    -0.72400
O61         O  0.18093126  0.47257564  0.99832003    -0.72900
O62         O  0.13396437  0.44139188  0.44321189    -0.72810
O63         O  0.09988264  0.46357914  0.41975974    -0.72600
C64         C  0.11479929  0.04737212  0.42149466     0.79190
C65         C  0.12031420  0.04899768  0.07489811     0.79680
C66         C  0.05481630  0.49577985  0.01699707     0.78640
C67         C  0.11871188  0.43920531  0.07194764     0.79010
C68         C  0.19325768  0.49432120  0.99961030     0.80150
C69         C  0.11482888  0.44377794  0.41864576     0.79200
Zn70       Zn  0.35722204  0.02666334  0.99761913     1.49720
Zn71       Zn  0.40247193  0.49421965  0.45850051     1.49360
Zn72       Zn  0.39202956  0.49385145  0.05630749     1.49110
Zn73       Zn  0.35730967  0.46158109  0.99617540     1.49480
O74         O  0.37692147  0.49408205  0.00141535    -1.82070
O75         O  0.36603658  0.04811662  0.44662931    -0.72700
O76         O  0.43732004  0.49493930  0.48316696    -0.72520
O77         O  0.38451981  0.02548765  0.09026658    -0.72040
O78         O  0.39997361  0.02564017  0.42332326    -0.72720
O79         O  0.36853190  0.05179475  0.04294405    -0.72320
O80         O  0.43029608  0.49534753  0.05021238    -0.72900
O81         O  0.36924406  0.43560084  0.03949312    -0.72290
O82         O  0.40096337  0.46245988  0.42342222    -0.73050
O83         O  0.38717453  0.46055574  0.08718564    -0.72440
O84         O  0.36596480  0.44081055  0.44442335    -0.72900
O85         O  0.31911671  0.47212957  0.99959689    -0.72810
O86         O  0.31897987  0.01586673  0.00019461    -0.72600
C87         C  0.38505810  0.04540894  0.42186002     0.79190
C88         C  0.44540168  0.49543482  0.01965639     0.79680
C89         C  0.37906392  0.04826340  0.07767941     0.78640
C90         C  0.38113586  0.43822042  0.07332915     0.79010
C91         C  0.38566027  0.44304161  0.42088641     0.80150
C92         C  0.30689677  0.49396451  0.00068674     0.79200
C93         C  0.26375758  0.01664760  0.01186619     0.25650
C94         C  0.27781630  0.49384332  0.00196457    -0.22460
C95         C  0.26369573  0.47105219  0.49247691     0.20560
C96         C  0.23638402  0.47113376  0.49220044     0.25590
C97         C  0.22232603  0.49403362  0.00140617    -0.22400
C98         C  0.23642277  0.01673319  0.01159009     0.20490
F99         F  0.22384603  0.03915647  0.02168543    -0.12360
F100        F  0.27636832  0.03898491  0.02219772    -0.14720
F101        F  0.22382841  0.44877428  0.48182171    -0.14720
F102        F  0.27622328  0.44860835  0.48233088    -0.12360
C103        C  0.48668982  0.47205934  0.02734521     0.25650
C104        C  0.47314301  0.49574349  0.02626812    -0.22460
C105        C  0.48648081  0.01956635  0.52603093     0.20560
C106        C  0.01361111  0.01963846  0.52495400     0.25590
C107        C  0.02711445  0.49589241  0.02405717    -0.22400
C108        C  0.01379067  0.47213473  0.02623882     0.20490
F109        F  0.02700850  0.44917275  0.02520986    -0.12360
F110        F  0.47361785  0.44901973  0.02717798    -0.14720
F111        F  0.02668312  0.04263193  0.52277514    -0.14720
F112        F  0.47320994  0.04248496  0.52467730    -0.12360
C113        C  0.08472184  0.40523269  0.07538668     0.25650
C114        C  0.10723291  0.41642018  0.09271323    -0.22460
C115        C  0.11379114  0.41027779  0.13310195     0.20560
C116        C  0.09715592  0.39452047  0.15660446     0.25590
C117        C  0.07328119  0.38560923  0.14040623    -0.22400
C118        C  0.06768095  0.39032925  0.09921283     0.20490
F119        F  0.04455933  0.38244873  0.08308640    -0.12360
F120        F  0.07756361  0.41143154  0.03674651    -0.14720
F121        F  0.10283281  0.39061215  0.19653812    -0.14720
F122        F  0.13519298  0.42114806  0.15063713    -0.12360
C123        C  0.10292561  0.42750528  0.34943832     0.25650
C124        C  0.10767408  0.42227981  0.39072822    -0.22460
C125        C  0.09936818  0.39829967  0.40710322     0.20560
C126        C  0.08411990  0.38113198  0.38366055     0.25590
C127        C  0.07794808  0.38723666  0.34312166    -0.22400
C128        C  0.08860088  0.40990623  0.32563351     0.20490
F129        F  0.08243022  0.41657772  0.28677348    -0.12360
F130        F  0.11035619  0.45063682  0.33307423    -0.14720
F131        F  0.07379680  0.35957119  0.40133783    -0.14720
F132        F  0.10340862  0.39291748  0.44709957    -0.12360
C133        C  0.38601373  0.40862701  0.13372710     0.25650
C134        C  0.39268700  0.41529015  0.09358721    -0.22460
C135        C  0.41534591  0.40446141  0.07611449     0.20560
C136        C  0.43245061  0.38946868  0.09966508     0.25590
C137        C  0.42679634  0.38432687  0.14074176    -0.22400
C138        C  0.40272980  0.39278360  0.15695219     0.20490
F139        F  0.39694779  0.38844509  0.19674608    -0.12360
F140        F  0.36442070  0.41909641  0.15135597    -0.14720
F141        F  0.45571219  0.38199980  0.08347201    -0.14720
F142        F  0.42257963  0.41113357  0.03768824    -0.12360
C143        C  0.41380373  0.41190626  0.32725695     0.25650
C144        C  0.42303388  0.38818555  0.34312146    -0.22460
C145        C  0.41517811  0.38054335  0.38230761     0.20560
C146        C  0.39968714  0.39728372  0.40627926     0.25590
C147        C  0.39275042  0.42218344  0.39174390    -0.22400
C148        C  0.39911184  0.42889609  0.35151175     0.20490
F149        F  0.39305799  0.45291331  0.33694681    -0.12360
F150        F  0.42165561  0.41999318  0.28980210    -0.14720
F151        F  0.39408804  0.39045583  0.44526381    -0.14720
F152        F  0.42414670  0.35790269  0.39842290    -0.12360
C153        C  0.07237150  0.10143003  0.10172778     0.25650
C154        C  0.07456152  0.10209385  0.14430256    -0.22460
C155        C  0.09564544  0.08916809  0.16298149     0.20560
C156        C  0.11261942  0.07356902  0.13983754     0.25590
C157        C  0.10936005  0.07147131  0.09748681    -0.22400
C158        C  0.08994307  0.08663290  0.07840997     0.20490
F159        F  0.08583642  0.08446721  0.03769661    -0.12360
F160        F  0.05199148  0.11341401  0.08306474    -0.14720
F161        F  0.13089394  0.05889617  0.15909529    -0.14720
F162        F  0.09796891  0.08921203  0.20417634    -0.12360
C163        C  0.09177083  0.08405480  0.32929324     0.25650
C164        C  0.07658592  0.10369450  0.34788374    -0.22460
C165        C  0.07865599  0.10751321  0.39012038     0.20560
C166        C  0.09426613  0.09087310  0.41368244     0.25590
C167        C  0.10723465  0.06959821  0.39555462    -0.22400
C168        C  0.10659338  0.06684345  0.35304904     0.20490
F169        F  0.11850895  0.04618830  0.33494339    -0.12360
F170        F  0.08960010  0.07940290  0.28870153    -0.14720
F171        F  0.09433922  0.09375800  0.45478819    -0.14720
F172        F  0.06397218  0.12603640  0.40888798    -0.12360
C173        C  0.42241392  0.10448293  0.10603762     0.25650
C174        C  0.42290908  0.10217263  0.14861930    -0.22460
C175        C  0.40459990  0.08583049  0.16778170     0.20560
C176        C  0.38796568  0.06997417  0.14460126     0.25590
C177        C  0.38883517  0.07071442  0.10181929    -0.22400
C178        C  0.40511777  0.08925458  0.08279387     0.20490
F179        F  0.40668913  0.09030346  0.04152414    -0.12360
F180        F  0.44010621  0.11987254  0.08684332    -0.14720
F181        F  0.37259936  0.05229127  0.16386467    -0.14720
F182        F  0.40495484  0.08295842  0.20890119    -0.12360
C183        C  0.41355787  0.07509426  0.32796648     0.25650
C184        C  0.42269923  0.09903744  0.34322057    -0.22460
C185        C  0.41438683  0.10746672  0.38183538     0.20560
C186        C  0.39873619  0.09112695  0.40611443     0.25590
C187        C  0.39190829  0.06599003  0.39226861    -0.22400
C188        C  0.39845490  0.05866641  0.35231320     0.20490
F189        F  0.39231093  0.03450435  0.33826534    -0.12360
F190        F  0.42177755  0.06630374  0.29103495    -0.14720
F191        F  0.39295229  0.09856439  0.44480966    -0.14720
F192        F  0.42328512  0.13034395  0.39734850    -0.12360
C193        C  0.02080792  0.23058367  0.26885929     0.25650
C194        C  0.00024362  0.21665405  0.25045448    -0.22460
C195        C  0.47965379  0.23062196  0.23229876     0.20560
C196        C  0.47969358  0.25786136  0.23228263     0.25590
C197        C  0.50032622  0.27182317  0.25042795    -0.22400
C198        C  0.02084815  0.25788258  0.26884604     0.20490
F199        F  0.04072123  0.27065075  0.28764397    -0.12360
F200        F  0.04063650  0.21780790  0.28769792    -0.14720
F201        F  0.45991237  0.27053980  0.21314980    -0.14720
F202        F  0.45983170  0.21793955  0.21321303    -0.12360
C203        C  0.02288156  0.48027003  0.27982346     0.25650
C204        C  0.50042226  0.46703999  0.26693829    -0.22460
C205        C  0.47823809  0.48069289  0.25415802     0.20560
C206        C  0.47888285  0.00765686  0.25240627     0.25590
C207        C  0.50171242  0.02090149  0.26348382    -0.22400
C208        C  0.02351454  0.00734946  0.27815943     0.20490
F209        F  0.04569577  0.02024250  0.28862515    -0.12360
F210        F  0.04452873  0.46692805  0.29152639    -0.14720
F211        F  0.45736913  0.02089168  0.23978770    -0.14720
F212        F  0.45622145  0.46781163  0.24278669    -0.12360
Zn213      Zn  0.50150425  0.09992591  0.80084144     1.49720
Zn214      Zn  0.49916013  0.09411219  0.70242534     1.49360
Zn215      Zn  0.46734137  0.13776648  0.74779176     1.49110
Zn216      Zn  0.03260654  0.13735572  0.74594528     1.49480
O217        O  0.99998286  0.11773509  0.74846265    -1.82070
O218        O  0.50647832  0.06259231  0.79047553    -0.72700
O219        O  0.46657500  0.09686693  0.66894714    -0.72520
O220        O  0.44266352  0.12716022  0.79426830    -0.72040
O221        O  0.49829031  0.05841594  0.72410768    -0.72720
O222        O  0.46752096  0.10011547  0.83001287    -0.72320
O223        O  0.44399463  0.12849329  0.69909054    -0.72900
O224        O  0.02223420  0.17565940  0.74918002    -0.72290
O225        O  0.03157753  0.09608664  0.66804462    -0.73050
O226        O  0.47832757  0.17576453  0.74905085    -0.72440
O227        O  0.05453530  0.12831641  0.69584402    -0.72900
O228        O  0.05772543  0.12536116  0.79065016    -0.72810
O229        O  0.03137546  0.10894616  0.83751093    -0.72600
C230        C  0.50253068  0.04880732  0.75905353     0.79190
C231        C  0.44596080  0.11050625  0.67237822     0.79680
C232        C  0.44555107  0.11053094  0.82269730     0.78640
C233        C  0.00029589  0.18776572  0.74967421     0.79010
C234        C  0.05211296  0.10999694  0.66980876     0.80150
C235        C  0.05418277  0.11441149  0.82498403     0.79200
Zn236      Zn  0.46772807  0.35081147  0.74537093     1.49720
Zn237      Zn  0.50125536  0.38702836  0.80213876     1.49360
Zn238      Zn  0.03305506  0.35092613  0.74438885     1.49110
Zn239      Zn  0.49987616  0.39480938  0.70367937     1.49480
O240        O  0.50038673  0.37047689  0.74820589    -1.82070
O241        O  0.44250026  0.36278437  0.79015815    -0.72700
O242        O  0.03287895  0.37981628  0.83611719    -0.72520
O243        O  0.02255385  0.31267727  0.74864465    -0.72040
O244        O  0.46817023  0.38361083  0.83395405    -0.72720
O245        O  0.47862086  0.31282002  0.74827467    -0.72320
O246        O  0.05866237  0.36383284  0.78788343    -0.72900
O247        O  0.03199670  0.39315440  0.66935284    -0.72290
O248        O  0.50332081  0.42501456  0.79369095    -0.73050
O249        O  0.05425276  0.35924531  0.69294595    -0.72440
O250        O  0.49858035  0.42996377  0.72664126    -0.72900
O251        O  0.46839440  0.39184639  0.66843109    -0.72810
O252        O  0.44575875  0.35907568  0.69467519    -0.72600
C253        C  0.44568195  0.37620492  0.82249222     0.79190
C254        C  0.05552639  0.37500860  0.82223153     0.79680
C255        C  0.50054012  0.30070667  0.74928440     0.78640
C256        C  0.05188359  0.37834682  0.66840819     0.79010
C257        C  0.50087352  0.43914771  0.76233275     0.80150
C258        C  0.44828846  0.37737865  0.66875207     0.79200
Zn259      Zn  0.09782201  0.49524357  0.95557574     1.49720
Zn260      Zn  0.14306354  0.02713121  0.49566786     1.49360
Zn261      Zn  0.10803774  0.49470053  0.55404845     1.49110
Zn262      Zn  0.14268312  0.46224526  0.49463043     1.49480
O263        O  0.12315539  0.49479354  0.49907357    -1.82070
O264        O  0.09962890  0.02777971  0.92205208    -0.72700
O265        O  0.13111731  0.05232284  0.54034679    -0.72520
O266        O  0.06992950  0.49609889  0.54747262    -0.72040
O267        O  0.13442660  0.04896434  0.94530218    -0.72720
O268        O  0.06283638  0.49511168  0.98043224    -0.72320
O269        O  0.11520024  0.02631716  0.58809818    -0.72900
O270        O  0.13058943  0.43639212  0.53811899    -0.72290
O271        O  0.18127261  0.01631826  0.49893815    -0.73050
O272        O  0.11270037  0.46162991  0.58546523    -0.72400
O273        O  0.18092266  0.47258885  0.49831899    -0.72900
O274        O  0.13396891  0.44138636  0.94320880    -0.72810
O275        O  0.09989172  0.46358037  0.91975679    -0.72600
C276        C  0.11481368  0.04737037  0.92149936     0.79190
C277        C  0.12030372  0.04899945  0.57490132     0.79680
C278        C  0.05480200  0.49579357  0.51698842     0.78640
C279        C  0.11869937  0.43920840  0.57193840     0.79010
C280        C  0.19324638  0.49433400  0.49960908     0.80150
C281        C  0.11483489  0.44377688  0.91864082     0.79200
Zn282      Zn  0.35720961  0.02669053  0.49761903     1.49720
Zn283      Zn  0.40248430  0.49419335  0.95849707     1.49360
Zn284      Zn  0.39201474  0.49387725  0.55631044     1.49110
Zn285      Zn  0.35729919  0.46160628  0.49617456     1.49480
O286        O  0.37690846  0.49410847  0.50141657    -1.82070
O287        O  0.36604922  0.04809067  0.94663315    -0.72700
O288        O  0.43733392  0.49491064  0.98316166    -0.72520
O289        O  0.38450393  0.02551305  0.59026920    -0.72040
O290        O  0.39998686  0.02561653  0.92332342    -0.72720
O291        O  0.36852143  0.05182207  0.54294471    -0.72320
O292        O  0.43028168  0.49537297  0.55021761    -0.72900
O293        O  0.36923703  0.43562633  0.53949097    -0.72290
O294        O  0.40097188  0.46243434  0.92341662    -0.73050
O295        O  0.38715946  0.46058171  0.58718992    -0.72440
O296        O  0.36597453  0.44078553  0.94442528    -0.72900
O297        O  0.31910644  0.47215422  0.49959736    -0.72810
O298        O  0.31896703  0.01589170  0.50019577    -0.72600
C299        C  0.38507107  0.04538534  0.92186417     0.79190
C300        C  0.44538747  0.49546176  0.51966180     0.79680
C301        C  0.37905147  0.04828945  0.57768146     0.78640
C302        C  0.38112654  0.43824598  0.57332900     0.79010
C303        C  0.38566808  0.44301633  0.92088454     0.80150
C304        C  0.30688528  0.49399037  0.50068772     0.79200
C305        C  0.26374399  0.01666875  0.51187045     0.25650
C306        C  0.27780481  0.49386475  0.50196452    -0.22460
C307        C  0.26370513  0.47102964  0.99248100     0.20560
C308        C  0.23639330  0.47111509  0.99220577     0.25590
C309        C  0.22231464  0.49405189  0.50140542    -0.22400
C310        C  0.23640908  0.01675044  0.51159312     0.20490
F311        F  0.22382984  0.03917242  0.52169286    -0.12360
F312        F  0.27635266  0.03900555  0.52220611    -0.14720
F313        F  0.22383544  0.44875516  0.98183140    -0.14720
F314        F  0.27623060  0.44858469  0.98233955    -0.12360
C315        C  0.48667276  0.47208169  0.52734438     0.25650
C316        C  0.47312880  0.49576755  0.52627281    -0.22460
C317        C  0.48649212  0.01954391  0.02602843     0.20560
C318        C  0.01362244  0.01961941  0.02495770     0.25590
C319        C  0.02710004  0.49590976  0.52404804    -0.22400
C320        C  0.01377342  0.47215370  0.52623071     0.20490
F321        F  0.02698819  0.44919003  0.52519743    -0.12360
F322        F  0.47359790  0.44904369  0.52717809    -0.14720
F323        F  0.02669178  0.04261446  0.02277980    -0.14720
F324        F  0.47321863  0.04246092  0.02467123    -0.12360
C325        C  0.08471672  0.40522921  0.57537364     0.25650
C326        C  0.10722618  0.41641958  0.59270052    -0.22460
C327        C  0.11378646  0.41027661  0.63308802     0.20560
C328        C  0.09715366  0.39451680  0.65659024     0.25590
C329        C  0.07327958  0.38560356  0.64039253    -0.22400
C330        C  0.06767839  0.39032279  0.59919932     0.20490
F331        F  0.04455741  0.38243981  0.58307354    -0.12360
F332        F  0.07755693  0.41142846  0.53673430    -0.14720
F333        F  0.10283128  0.39060893  0.69652375    -0.14720
F334        F  0.13518684  0.42114981  0.65062310    -0.12360
C335        C  0.10292853  0.42751205  0.84942950     0.25650
C336        C  0.10767833  0.42228185  0.89071770    -0.22460
C337        C  0.09937300  0.39829960  0.90708609     0.20560
C338        C  0.08412436  0.38113441  0.88363917     0.25590
C339        C  0.07795134  0.38724372  0.84310237    -0.22400
C340        C  0.08860312  0.40991569  0.82562051     0.20490
F341        F  0.08243110  0.41659171  0.78676293    -0.12360
F342        F  0.11035868  0.45064545  0.83307137    -0.14720
F343        F  0.07380137  0.35957179  0.90131115    -0.14720
F344        F  0.10341422  0.39291275  0.94708070    -0.12360
C345        C  0.38601181  0.40864768  0.63372114     0.25650
C346        C  0.39268310  0.41531655  0.59358272    -0.22460
C347        C  0.41534327  0.40449313  0.57610584     0.20560
C348        C  0.43244994  0.38949858  0.59965031     0.25590
C349        C  0.42679645  0.38434886  0.64072479    -0.22400
C350        C  0.40272982  0.39280214  0.65693975     0.20490
F351        F  0.39694887  0.38845698  0.69673222    -0.12360
F352        F  0.36441801  0.41911232  0.65135465    -0.14720
F353        F  0.45571192  0.38203440  0.58345345    -0.14720
F354        F  0.42257544  0.41117134  0.53768148    -0.12360
C355        C  0.41379567  0.41187538  0.82724773     0.25650
C356        C  0.42303265  0.38815791  0.84311469    -0.22460
C357        C  0.41518673  0.38051940  0.88230725     0.20560
C358        C  0.39969827  0.39725996  0.90628169     0.25590
C359        C  0.39275542  0.42215707  0.89174310    -0.22400
C360        C  0.39910753  0.42886642  0.85150610     0.20490
F361        F  0.39304862  0.45288177  0.83693885    -0.12360
F362        F  0.42163935  0.41995952  0.78978722    -0.14720
F363        F  0.39410798  0.39043549  0.94527079    -0.14720
F364        F  0.42416206  0.35788192  0.89842443    -0.12360
C365        C  0.07236647  0.10143520  0.60174088     0.25650
C366        C  0.07455616  0.10209462  0.64431577    -0.22460
C367        C  0.09563796  0.08916437  0.66299256     0.20560
C368        C  0.11260990  0.07356503  0.63984590     0.25590
C369        C  0.10935060  0.07147150  0.59749474    -0.22400
C370        C  0.08993622  0.08663776  0.57842031     0.20490
F371        F  0.08583018  0.08447699  0.53770611    -0.12360
F372        F  0.05198840  0.11342393  0.58308008    -0.14720
F373        F  0.13088236  0.05888822  0.65910104    -0.14720
F374        F  0.09796101  0.08920451  0.70418740    -0.12360
C375        C  0.09178377  0.08405380  0.82929946     0.25650
C376        C  0.07659658  0.10369140  0.84789082    -0.22460
C377        C  0.07866697  0.10750977  0.89012754     0.20560
C378        C  0.09427916  0.09087095  0.91368875     0.25590
C379        C  0.10724955  0.06959743  0.89556030    -0.22400
C380        C  0.10660857  0.06684366  0.85305444     0.20490
F381        F  0.11852613  0.04619002  0.83494778    -0.12360
F382        F  0.08961298  0.07940222  0.78870776    -0.14720
F383        F  0.09435240  0.09375541  0.95479449    -0.14720
F384        F  0.06398098  0.12603076  0.90889628    -0.12360
C385        C  0.42241292  0.10449806  0.60604783     0.25650
C386        C  0.42290498  0.10218695  0.64862959    -0.22460
C387        C  0.40458979  0.08584986  0.66778864     0.20560
C388        C  0.38795256  0.06999850  0.64460495     0.25590
C389        C  0.38882510  0.07073884  0.60182301    -0.22400
C390        C  0.40511387  0.08927493  0.58280085     0.20490
F391        F  0.40668791  0.09032413  0.54153137    -0.12360
F392        F  0.44011038  0.11988339  0.58685671    -0.14720
F393        F  0.37258013  0.05231955  0.66386537    -0.14720
F394        F  0.40494129  0.08297707  0.70890814    -0.12360
C395        C  0.41356632  0.07508739  0.82797888     0.25650
C396        C  0.42270545  0.09902936  0.84324125    -0.22460
C397        C  0.41439471  0.10745119  0.88186068     0.20560
C398        C  0.39874695  0.09110589  0.90613478     0.25590
C399        C  0.39192126  0.06597040  0.89227992    -0.22400
C400        C  0.39846733  0.05865342  0.85232149     0.20490
F401        F  0.39232610  0.03449259  0.83826553    -0.12360
F402        F  0.42178503  0.06630394  0.79104268    -0.14720
F403        F  0.39296374  0.09853668  0.94483336    -0.14720
F404        F  0.42329165  0.13032666  0.89738207    -0.12360
C405        C  0.02080394  0.23058610  0.76886750     0.25650
C406        C  0.00024110  0.21665400  0.75046370    -0.22460
C407        C  0.47965266  0.23061937  0.73229941     0.20560
C408        C  0.47969246  0.25785884  0.73227372     0.25590
C409        C  0.50032364  0.27182327  0.75041826    -0.22400
C410        C  0.02084407  0.25788504  0.76884526     0.20490
F411        F  0.04071561  0.27065560  0.78764318    -0.12360
F412        F  0.04063114  0.21781277  0.78771366    -0.14720
F413        F  0.45991272  0.27053451  0.71313279    -0.14720
F414        F  0.45983221  0.21793416  0.71321407    -0.12360
C415        C  0.02286313  0.48026555  0.77981803     0.25650
C416        C  0.50039941  0.46703769  0.76694711    -0.22460
C417        C  0.47821424  0.48069222  0.75417595     0.20560
C418        C  0.47886182  0.00765635  0.75242095     0.25590
C419        C  0.50169532  0.02089870  0.76348605    -0.22400
C420        C  0.02349888  0.00734463  0.77815142     0.20490
F421        F  0.04568394  0.02023535  0.78860439    -0.12360
F422        F  0.04451158  0.46692140  0.79150929    -0.14720
F423        F  0.45734747  0.02089336  0.73981076    -0.14720
F424        F  0.45619496  0.46781236  0.74281347    -0.12360
Zn425      Zn  0.50150282  0.59993055  0.30082756     1.49720
Zn426      Zn  0.49916541  0.59411044  0.20241325     1.49360
Zn427      Zn  0.46734197  0.63776733  0.24777019     1.49110
Zn428      Zn  0.03260710  0.63735575  0.24592792     1.49480
O429        O  0.99998348  0.61773611  0.24844570    -1.82070
O430        O  0.50648962  0.56259710  0.29047072    -0.72700
O431        O  0.46657865  0.59685775  0.16893914    -0.72520
O432        O  0.44266177  0.62716592  0.29424757    -0.72040
O433        O  0.49830244  0.55841666  0.22410318    -0.72720
O434        O  0.46751492  0.60011495  0.32998741    -0.72320
O435        O  0.44399747  0.62848954  0.19906811    -0.72900
O436        O  0.02223561  0.67565906  0.24916507    -0.72290
O437        O  0.03158209  0.59608576  0.16802979    -0.73050
O438        O  0.47832901  0.67576520  0.24902929    -0.72440
O439        O  0.05453868  0.62831611  0.19582918    -0.72900
O440        O  0.05772173  0.62535961  0.29063492    -0.72810
O441        O  0.03136611  0.60896473  0.33750487    -0.72600
C442        C  0.50254477  0.54881014  0.25904986     0.79190
C443        C  0.44596430  0.61049746  0.17236399     0.79680
C444        C  0.44554655  0.61053428  0.32267392     0.78640
C445        C  0.00029760  0.68776585  0.24965780     0.79010
C446        C  0.05211741  0.60999621  0.16979439     0.80150
C447        C  0.05417543  0.61441882  0.32497460     0.79200
Zn448      Zn  0.46772938  0.85081043  0.24540393     1.49720
Zn449      Zn  0.50126798  0.88703616  0.30214637     1.49360
Zn450      Zn  0.03305697  0.85092610  0.24439988     1.49110
Zn451      Zn  0.49987439  0.89480473  0.20369063     1.49480
O452        O  0.50038904  0.87047643  0.24822170    -1.82070
O453        O  0.44250240  0.86278427  0.29019537    -0.72700
O454        O  0.03287695  0.87979333  0.33614377    -0.72520
O455        O  0.02255668  0.81267687  0.24865367    -0.72040
O456        O  0.46817110  0.88365673  0.33394024    -0.72720
O457        O  0.47862355  0.81281987  0.24830465    -0.72320
O458        O  0.05866232  0.86383313  0.28789454    -0.72900
O459        O  0.03199613  0.89315496  0.16936463    -0.72290
O460        O  0.50336840  0.92501956  0.29368800    -0.73050
O461        O  0.05425548  0.85924844  0.19295826    -0.72440
O462        O  0.49857326  0.92996065  0.22664644    -0.72900
O463        O  0.46839429  0.89183117  0.16844215    -0.72810
O464        O  0.44575779  0.85906827  0.19470877    -0.72600
C465        C  0.44568425  0.87623046  0.32250382     0.79190
C466        C  0.05552528  0.87499779  0.32225097     0.79680
C467        C  0.50054295  0.80070647  0.24930180     0.78640
C468        C  0.05188500  0.87835000  0.16842085     0.79010
C469        C  0.50089608  0.93914914  0.26233054     0.80150
C470        C  0.44828811  0.87736385  0.16877317     0.79200
Zn471      Zn  0.09781025  0.99524483  0.45557186     1.49720
Zn472      Zn  0.14307877  0.52712473  0.99566894     1.49360
Zn473      Zn  0.10805354  0.99469370  0.05405394     1.49110
Zn474      Zn  0.14269010  0.96223710  0.99463000     1.49480
O475        O  0.12316801  0.99478845  0.99907579    -1.82070
O476        O  0.09961768  0.52777892  0.42204317    -0.72700
O477        O  0.13113367  0.55231883  0.04034729    -0.72520
O478        O  0.06994441  0.99607866  0.04748080    -0.72040
O479        O  0.13440914  0.54896971  0.44530279    -0.72720
O480        O  0.06282292  0.99511469  0.48042446    -0.72320
O481        O  0.11520504  0.52631658  0.08809419    -0.72900
O482        O  0.13058962  0.93638600  0.03811819    -0.72290
O483        O  0.18128659  0.51630525  0.99893927    -0.73050
O484        O  0.11272911  0.96162899  0.08548324    -0.72400
O485        O  0.18093127  0.97257564  0.99832004    -0.72900
O486        O  0.13396438  0.94139188  0.44321189    -0.72810
O487        O  0.09988264  0.96357914  0.41975974    -0.72600
C488        C  0.11479929  0.54737213  0.42149466     0.79190
C489        C  0.12031419  0.54899768  0.07489811     0.79680
C490        C  0.05481630  0.99577985  0.01699711     0.78640
C491        C  0.11871189  0.93920531  0.07194764     0.79010
C492        C  0.19325769  0.99432119  0.99961031     0.80150
C493        C  0.11482888  0.94377794  0.41864576     0.79200
Zn494      Zn  0.35722204  0.52666334  0.99761913     1.49720
Zn495      Zn  0.40247193  0.99421965  0.45850050     1.49360
Zn496      Zn  0.39202956  0.99385144  0.05630750     1.49110
Zn497      Zn  0.35730967  0.96158109  0.99617540     1.49480
O498        O  0.37692148  0.99408205  0.00141536    -1.82070
O499        O  0.36603658  0.54811662  0.44662931    -0.72700
O500        O  0.43732004  0.99493931  0.48316696    -0.72520
O501        O  0.38451980  0.52548765  0.09026658    -0.72040
O502        O  0.39997361  0.52564017  0.42332327    -0.72720
O503        O  0.36853190  0.55179475  0.04294405    -0.72320
O504        O  0.43029608  0.99534750  0.05021239    -0.72900
O505        O  0.36924407  0.93560084  0.03949311    -0.72290
O506        O  0.40096337  0.96245988  0.42342221    -0.73050
O507        O  0.38717451  0.96055574  0.08718566    -0.72440
O508        O  0.36596480  0.94081055  0.44442335    -0.72900
O509        O  0.31911671  0.97212957  0.99959690    -0.72810
O510        O  0.31897986  0.51586673  0.00019460    -0.72600
C511        C  0.38505810  0.54540894  0.42186002     0.79190
C512        C  0.44540168  0.99543480  0.01965641     0.79680
C513        C  0.37906391  0.54826340  0.07767942     0.78640
C514        C  0.38113585  0.93822042  0.07332916     0.79010
C515        C  0.38566027  0.94304161  0.42088640     0.80150
C516        C  0.30689678  0.99396451  0.00068675     0.79200
C517        C  0.26375758  0.51664760  0.01186619     0.25650
C518        C  0.27781630  0.99384332  0.00196458    -0.22460
C519        C  0.26369573  0.97105219  0.49247690     0.20560
C520        C  0.23638402  0.97113376  0.49220043     0.25590
C521        C  0.22232604  0.99403361  0.00140618    -0.22400
C522        C  0.23642277  0.51673319  0.01159008     0.20490
F523        F  0.22384603  0.53915647  0.02168542    -0.12360
F524        F  0.27636832  0.53898491  0.02219772    -0.14720
F525        F  0.22382841  0.94877428  0.48182169    -0.14720
F526        F  0.27622329  0.94860836  0.48233086    -0.12360
C527        C  0.48668982  0.97205931  0.02734518     0.25650
C528        C  0.47314301  0.99574346  0.02626814    -0.22460
C529        C  0.48648081  0.51956634  0.52603095     0.20560
C530        C  0.01361110  0.51963847  0.52495395     0.25590
C531        C  0.02711446  0.99589241  0.02405722    -0.22400
C532        C  0.01379067  0.97213472  0.02623887     0.20490
F533        F  0.02700850  0.94917275  0.02520992    -0.12360
F534        F  0.47361786  0.94901970  0.02717790    -0.14720
F535        F  0.02668312  0.54263194  0.52277506    -0.14720
F536        F  0.47320993  0.54248496  0.52467734    -0.12360
C537        C  0.08472186  0.90523269  0.07538669     0.25650
C538        C  0.10723292  0.91642018  0.09271324    -0.22460
C539        C  0.11379115  0.91027779  0.13310197     0.20560
C540        C  0.09715592  0.89452047  0.15660448     0.25590
C541        C  0.07328120  0.88560923  0.14040624    -0.22400
C542        C  0.06768096  0.89032925  0.09921284     0.20490
F543        F  0.04455934  0.88244873  0.08308640    -0.12360
F544        F  0.07756363  0.91143153  0.03674651    -0.14720
F545        F  0.10283280  0.89061216  0.19653814    -0.14720
F546        F  0.13519298  0.92114807  0.15063715    -0.12360
C547        C  0.10292562  0.92750529  0.34943831     0.25650
C548        C  0.10767409  0.92227981  0.39072821    -0.22460
C549        C  0.09936818  0.89829967  0.40710321     0.20560
C550        C  0.08411990  0.88113198  0.38366054     0.25590
C551        C  0.07794808  0.88723666  0.34312165    -0.22400
C552        C  0.08860089  0.90990623  0.32563350     0.20490
F553        F  0.08243023  0.91657773  0.28677347    -0.12360
F554        F  0.11035619  0.95063682  0.33307423    -0.14720
F555        F  0.07379680  0.85957119  0.40133782    -0.14720
F556        F  0.10340862  0.89291748  0.44709956    -0.12360
C557        C  0.38601373  0.90862701  0.13372711     0.25650
C558        C  0.39268699  0.91529015  0.09358722    -0.22460
C559        C  0.41534591  0.90446141  0.07611450     0.20560
C560        C  0.43245061  0.88946868  0.09966508     0.25590
C561        C  0.42679634  0.88432687  0.14074176    -0.22400
C562        C  0.40272980  0.89278361  0.15695219     0.20490
F563        F  0.39694780  0.88844510  0.19674609    -0.12360
F564        F  0.36442070  0.91909642  0.15135599    -0.14720
F565        F  0.45571218  0.88199980  0.08347201    -0.14720
F566        F  0.42257962  0.91113357  0.03768825    -0.12360
C567        C  0.41380373  0.91190626  0.32725695     0.25650
C568        C  0.42303388  0.88818555  0.34312146    -0.22460
C569        C  0.41517811  0.88054335  0.38230761     0.20560
C570        C  0.39968715  0.89728372  0.40627927     0.25590
C571        C  0.39275042  0.92218344  0.39174390    -0.22400
C572        C  0.39911183  0.92889609  0.35151175     0.20490
F573        F  0.39305799  0.95291330  0.33694680    -0.12360
F574        F  0.42165561  0.91999317  0.28980210    -0.14720
F575        F  0.39408804  0.89045583  0.44526382    -0.14720
F576        F  0.42414670  0.85790269  0.39842291    -0.12360
C577        C  0.07237149  0.60143003  0.10172779     0.25650
C578        C  0.07456151  0.60209385  0.14430256    -0.22460
C579        C  0.09564544  0.58916808  0.16298149     0.20560
C580        C  0.11261941  0.57356902  0.13983755     0.25590
C581        C  0.10936004  0.57147131  0.09748681    -0.22400
C582        C  0.08994306  0.58663290  0.07840997     0.20490
F583        F  0.08583642  0.58446721  0.03769661    -0.12360
F584        F  0.05199148  0.61341402  0.08306474    -0.14720
F585        F  0.13089393  0.55889617  0.15909529    -0.14720
F586        F  0.09796891  0.58921202  0.20417634    -0.12360
C587        C  0.09177083  0.58405480  0.32929324     0.25650
C588        C  0.07658591  0.60369450  0.34788375    -0.22460
C589        C  0.07865598  0.60751321  0.39012039     0.20560
C590        C  0.09426612  0.59087310  0.41368244     0.25590
C591        C  0.10723465  0.56959821  0.39555463    -0.22400
C592        C  0.10659338  0.56684345  0.35304904     0.20490
F593        F  0.11850895  0.54618831  0.33494339    -0.12360
F594        F  0.08960009  0.57940291  0.28870153    -0.14720
F595        F  0.09433921  0.59375800  0.45478820    -0.14720
F596        F  0.06397217  0.62603640  0.40888799    -0.12360
C597        C  0.42241391  0.60448293  0.10603763     0.25650
C598        C  0.42290907  0.60217262  0.14861930    -0.22460
C599        C  0.40459989  0.58583048  0.16778170     0.20560
C600        C  0.38796568  0.56997416  0.14460126     0.25590
C601        C  0.38883517  0.57071441  0.10181930    -0.22400
C602        C  0.40511776  0.58925458  0.08279388     0.20490
F603        F  0.40668912  0.59030346  0.04152414    -0.12360
F604        F  0.44010619  0.61987254  0.08684332    -0.14720
F605        F  0.37259936  0.55229126  0.16386467    -0.14720
F606        F  0.40495484  0.58295841  0.20890120    -0.12360
C607        C  0.41355787  0.57509426  0.32796648     0.25650
C608        C  0.42269922  0.59903744  0.34322057    -0.22460
C609        C  0.41438683  0.60746671  0.38183537     0.20560
C610        C  0.39873619  0.59112694  0.40611443     0.25590
C611        C  0.39190829  0.56599002  0.39226861    -0.22400
C612        C  0.39845490  0.55866641  0.35231320     0.20490
F613        F  0.39231093  0.53450434  0.33826534    -0.12360
F614        F  0.42177755  0.56630373  0.29103495    -0.14720
F615        F  0.39295229  0.59856439  0.44480965    -0.14720
F616        F  0.42328512  0.63034394  0.39734850    -0.12360
C617        C  0.02080792  0.73058367  0.26885929     0.25650
C618        C  0.00024361  0.71665405  0.25045448    -0.22460
C619        C  0.47965379  0.73062196  0.23229876     0.20560
C620        C  0.47969358  0.75786136  0.23228262     0.25590
C621        C  0.50032621  0.77182318  0.25042795    -0.22400
C622        C  0.02084815  0.75788258  0.26884604     0.20490
F623        F  0.04072123  0.77065075  0.28764397    -0.12360
F624        F  0.04063649  0.71780790  0.28769792    -0.14720
F625        F  0.45991237  0.77053980  0.21314980    -0.14720
F626        F  0.45983170  0.71793955  0.21321303    -0.12360
C627        C  0.02288153  0.98027003  0.27982349     0.25650
C628        C  0.50042226  0.96703999  0.26693830    -0.22460
C629        C  0.47823808  0.98069289  0.25415803     0.20560
C630        C  0.47888285  0.50765686  0.25240626     0.25590
C631        C  0.50171243  0.52090149  0.26348382    -0.22400
C632        C  0.02351457  0.50734947  0.27815941     0.20490
F633        F  0.04569580  0.52024250  0.28862510    -0.12360
F634        F  0.04452869  0.96692805  0.29152644    -0.14720
F635        F  0.45736914  0.52089167  0.23978769    -0.14720
F636        F  0.45622145  0.96781163  0.24278670    -0.12360
Zn637      Zn  0.50150424  0.59992592  0.80084145     1.49720
Zn638      Zn  0.49916012  0.59411218  0.70242535     1.49360
Zn639      Zn  0.46734137  0.63776648  0.74779176     1.49110
Zn640      Zn  0.03260654  0.63735572  0.74594528     1.49480
O641        O  0.99998286  0.61773509  0.74846265    -1.82070
O642        O  0.50647831  0.56259231  0.79047554    -0.72700
O643        O  0.46657500  0.59686693  0.66894715    -0.72520
O644        O  0.44266352  0.62716021  0.79426829    -0.72040
O645        O  0.49829031  0.55841594  0.72410769    -0.72720
O646        O  0.46752095  0.60011548  0.83001289    -0.72320
O647        O  0.44399462  0.62849329  0.69909053    -0.72900
O648        O  0.02223420  0.67565940  0.74918002    -0.72290
O649        O  0.03157753  0.59608664  0.66804461    -0.73050
O650        O  0.47832757  0.67576453  0.74905085    -0.72440
O651        O  0.05453529  0.62831641  0.69584402    -0.72900
O652        O  0.05772543  0.62536116  0.79065016    -0.72810
O653        O  0.03137545  0.60894617  0.83751094    -0.72600
C654        C  0.50253067  0.54880731  0.75905354     0.79190
C655        C  0.44596080  0.61050625  0.67237822     0.79680
C656        C  0.44555106  0.61053094  0.82269730     0.78640
C657        C  0.00029589  0.68776572  0.74967421     0.79010
C658        C  0.05211295  0.60999694  0.66980876     0.80150
C659        C  0.05418277  0.61441150  0.82498404     0.79200
Zn660      Zn  0.46772807  0.85081147  0.74537093     1.49720
Zn661      Zn  0.50125536  0.88702836  0.80213876     1.49360
Zn662      Zn  0.03305506  0.85092613  0.74438885     1.49110
Zn663      Zn  0.49987616  0.89480938  0.70367937     1.49480
O664        O  0.50038673  0.87047689  0.74820589    -1.82070
O665        O  0.44250026  0.86278437  0.79015815    -0.72700
O666        O  0.03287895  0.87981630  0.83611718    -0.72520
O667        O  0.02255384  0.81267727  0.74864465    -0.72040
O668        O  0.46817023  0.88361084  0.83395404    -0.72720
O669        O  0.47862086  0.81282002  0.74827467    -0.72320
O670        O  0.05866236  0.86383284  0.78788343    -0.72900
O671        O  0.03199670  0.89315440  0.66935284    -0.72290
O672        O  0.50332082  0.92501456  0.79369094    -0.73050
O673        O  0.05425276  0.85924531  0.69294595    -0.72440
O674        O  0.49858035  0.92996377  0.72664125    -0.72900
O675        O  0.46839440  0.89184639  0.66843108    -0.72810
O676        O  0.44575875  0.85907568  0.69467519    -0.72600
C677        C  0.44568195  0.87620493  0.82249221     0.79190
C678        C  0.05552639  0.87500861  0.82223152     0.79680
C679        C  0.50054012  0.80070667  0.74928440     0.78640
C680        C  0.05188359  0.87834682  0.66840819     0.79010
C681        C  0.50087352  0.93914771  0.76233274     0.80150
C682        C  0.44828846  0.87737865  0.66875206     0.79200
Zn683      Zn  0.09782200  0.99524357  0.95557576     1.49720
Zn684      Zn  0.14306353  0.52713121  0.49566786     1.49360
Zn685      Zn  0.10803774  0.99470053  0.55404845     1.49110
Zn686      Zn  0.14268312  0.96224526  0.49463043     1.49480
O687        O  0.12315539  0.99479354  0.49907357    -1.82070
O688        O  0.09962890  0.52777971  0.92205206    -0.72700
O689        O  0.13111731  0.55232284  0.54034679    -0.72520
O690        O  0.06992950  0.99609889  0.54747263    -0.72040
O691        O  0.13442659  0.54896435  0.94530218    -0.72720
O692        O  0.06283638  0.99511168  0.98043228    -0.72320
O693        O  0.11520024  0.52631716  0.58809819    -0.72900
O694        O  0.13058943  0.93639211  0.53811899    -0.72290
O695        O  0.18127261  0.51631826  0.49893815    -0.73050
O696        O  0.11270038  0.96162991  0.58546524    -0.72400
O697        O  0.18092266  0.97258885  0.49831899    -0.72900
O698        O  0.13396891  0.94138636  0.94320880    -0.72810
O699        O  0.09989171  0.96358037  0.91975680    -0.72600
C700        C  0.11481368  0.54737037  0.92149936     0.79190
C701        C  0.12030371  0.54899945  0.57490132     0.79680
C702        C  0.05480200  0.99579356  0.51698842     0.78640
C703        C  0.11869937  0.93920840  0.57193840     0.79010
C704        C  0.19324638  0.99433400  0.49960908     0.80150
C705        C  0.11483489  0.94377688  0.91864082     0.79200
Zn706      Zn  0.35720961  0.52669053  0.49761903     1.49720
Zn707      Zn  0.40248431  0.99419335  0.95849708     1.49360
Zn708      Zn  0.39201474  0.99387725  0.55631044     1.49110
Zn709      Zn  0.35729919  0.96160629  0.49617456     1.49480
O710        O  0.37690846  0.99410847  0.50141656    -1.82070
O711        O  0.36604922  0.54809067  0.94663315    -0.72700
O712        O  0.43733392  0.99491063  0.98316168    -0.72520
O713        O  0.38450393  0.52551305  0.59026920    -0.72040
O714        O  0.39998684  0.52561653  0.92332341    -0.72720
O715        O  0.36852143  0.55182207  0.54294471    -0.72320
O716        O  0.43028169  0.99537298  0.55021761    -0.72900
O717        O  0.36923703  0.93562633  0.53949097    -0.72290
O718        O  0.40097188  0.96243434  0.92341663    -0.73050
O719        O  0.38715946  0.96058171  0.58718991    -0.72440
O720        O  0.36597453  0.94078554  0.94442528    -0.72900
O721        O  0.31910644  0.97215423  0.49959736    -0.72810
O722        O  0.31896702  0.51589170  0.50019578    -0.72600
C723        C  0.38507107  0.54538534  0.92186417     0.79190
C724        C  0.44538747  0.99546176  0.51966179     0.79680
C725        C  0.37905146  0.54828945  0.57768145     0.78640
C726        C  0.38112654  0.93824598  0.57332900     0.79010
C727        C  0.38566808  0.94301634  0.92088454     0.80150
C728        C  0.30688528  0.99399037  0.50068771     0.79200
C729        C  0.26374399  0.51666875  0.51187044     0.25650
C730        C  0.27780481  0.99386475  0.50196451    -0.22460
C731        C  0.26370513  0.97102964  0.99248101     0.20560
C732        C  0.23639330  0.97111508  0.99220578     0.25590
C733        C  0.22231464  0.99405188  0.50140542    -0.22400
C734        C  0.23640907  0.51675044  0.51159312     0.20490
F735        F  0.22382984  0.53917243  0.52169285    -0.12360
F736        F  0.27635266  0.53900555  0.52220610    -0.14720
F737        F  0.22383545  0.94875516  0.98183142    -0.14720
F738        F  0.27623061  0.94858469  0.98233956    -0.12360
C739        C  0.48667276  0.97208169  0.52734439     0.25650
C740        C  0.47312880  0.99576756  0.52627280    -0.22460
C741        C  0.48649212  0.51954394  0.02602835     0.20560
C742        C  0.01362244  0.51961942  0.02495767     0.25590
C743        C  0.02710004  0.99590975  0.52404805    -0.22400
C744        C  0.01377342  0.97215369  0.52623069     0.20490
F745        F  0.02698819  0.94919001  0.52519737    -0.12360
F746        F  0.47359790  0.94904370  0.52717811    -0.14720
F747        F  0.02669177  0.54261447  0.02277977    -0.14720
F748        F  0.47321863  0.54246095  0.02467110    -0.12360
C749        C  0.08471673  0.90522921  0.57537365     0.25650
C750        C  0.10722618  0.91641958  0.59270052    -0.22460
C751        C  0.11378646  0.91027661  0.63308802     0.20560
C752        C  0.09715365  0.89451681  0.65659024     0.25590
C753        C  0.07327958  0.88560357  0.64039254    -0.22400
C754        C  0.06767839  0.89032279  0.59919932     0.20490
F755        F  0.04455741  0.88243981  0.58307354    -0.12360
F756        F  0.07755693  0.91142846  0.53673430    -0.14720
F757        F  0.10283127  0.89060893  0.69652376    -0.14720
F758        F  0.13518684  0.92114981  0.65062311    -0.12360
C759        C  0.10292852  0.92751207  0.84942950     0.25650
C760        C  0.10767833  0.92228185  0.89071770    -0.22460
C761        C  0.09937301  0.89829960  0.90708608     0.20560
C762        C  0.08412437  0.88113441  0.88363915     0.25590
C763        C  0.07795134  0.88724373  0.84310236    -0.22400
C764        C  0.08860311  0.90991571  0.82562051     0.20490
F765        F  0.08243109  0.91659173  0.78676294    -0.12360
F766        F  0.11035867  0.95064547  0.83307138    -0.14720
F767        F  0.07380138  0.85957178  0.90131113    -0.14720
F768        F  0.10341423  0.89291274  0.94708068    -0.12360
C769        C  0.38601181  0.90864767  0.63372114     0.25650
C770        C  0.39268310  0.91531655  0.59358271    -0.22460
C771        C  0.41534327  0.90449313  0.57610584     0.20560
C772        C  0.43244994  0.88949857  0.59965030     0.25590
C773        C  0.42679644  0.88434885  0.64072479    -0.22400
C774        C  0.40272982  0.89280214  0.65693974     0.20490
F775        F  0.39694886  0.88845698  0.69673221    -0.12360
F776        F  0.36441801  0.91911232  0.65135465    -0.14720
F777        F  0.45571192  0.88203440  0.58345345    -0.14720
F778        F  0.42257545  0.91117134  0.53768148    -0.12360
C779        C  0.41379568  0.91187539  0.82724773     0.25650
C780        C  0.42303265  0.88815792  0.84311468    -0.22460
C781        C  0.41518672  0.88051940  0.88230724     0.20560
C782        C  0.39969826  0.89725997  0.90628167     0.25590
C783        C  0.39275542  0.92215708  0.89174310    -0.22400
C784        C  0.39910754  0.92886644  0.85150610     0.20490
F785        F  0.39304863  0.95288179  0.83693885    -0.12360
F786        F  0.42163936  0.91995954  0.78978723    -0.14720
F787        F  0.39410796  0.89043549  0.94527077    -0.14720
F788        F  0.42416205  0.85788192  0.89842441    -0.12360
C789        C  0.07236647  0.60143520  0.60174087     0.25650
C790        C  0.07455615  0.60209463  0.64431577    -0.22460
C791        C  0.09563796  0.58916437  0.66299255     0.20560
C792        C  0.11260990  0.57356504  0.63984590     0.25590
C793        C  0.10935060  0.57147151  0.59749474    -0.22400
C794        C  0.08993622  0.58663776  0.57842031     0.20490
F795        F  0.08583018  0.58447698  0.53770611    -0.12360
F796        F  0.05198840  0.61342392  0.58308007    -0.14720
F797        F  0.13088235  0.55888822  0.65910104    -0.14720
F798        F  0.09796100  0.58920451  0.70418739    -0.12360
C799        C  0.09178377  0.58405382  0.82929946     0.25650
C800        C  0.07659657  0.60369141  0.84789083    -0.22460
C801        C  0.07866696  0.60750977  0.89012754     0.20560
C802        C  0.09427915  0.59087095  0.91368875     0.25590
C803        C  0.10724955  0.56959744  0.89556029    -0.22400
C804        C  0.10660857  0.56684367  0.85305444     0.20490
F805        F  0.11852613  0.54619003  0.83494777    -0.12360
F806        F  0.08961298  0.57940223  0.78870776    -0.14720
F807        F  0.09435239  0.59375540  0.95479449    -0.14720
F808        F  0.06398097  0.62603076  0.90889629    -0.12360
C809        C  0.42241292  0.60449806  0.60604783     0.25650
C810        C  0.42290498  0.60218695  0.64862959    -0.22460
C811        C  0.40458979  0.58584986  0.66778864     0.20560
C812        C  0.38795256  0.56999850  0.64460495     0.25590
C813        C  0.38882510  0.57073884  0.60182301    -0.22400
C814        C  0.40511387  0.58927493  0.58280084     0.20490
F815        F  0.40668791  0.59032413  0.54153137    -0.12360
F816        F  0.44011038  0.61988339  0.58685671    -0.14720
F817        F  0.37258013  0.55231955  0.66386537    -0.14720
F818        F  0.40494129  0.58297707  0.70890814    -0.12360
C819        C  0.41356631  0.57508740  0.82797888     0.25650
C820        C  0.42270545  0.59902936  0.84324125    -0.22460
C821        C  0.41439470  0.60745119  0.88186068     0.20560
C822        C  0.39874694  0.59110589  0.90613478     0.25590
C823        C  0.39192125  0.56597040  0.89227991    -0.22400
C824        C  0.39846732  0.55865343  0.85232148     0.20490
F825        F  0.39232609  0.53449259  0.83826551    -0.12360
F826        F  0.42178502  0.56630394  0.79104267    -0.14720
F827        F  0.39296373  0.59853668  0.94483336    -0.14720
F828        F  0.42329164  0.63032666  0.89738208    -0.12360
C829        C  0.02080394  0.73058610  0.76886750     0.25650
C830        C  0.00024110  0.71665400  0.75046370    -0.22460
C831        C  0.47965266  0.73061937  0.73229941     0.20560
C832        C  0.47969246  0.75785884  0.73227373     0.25590
C833        C  0.50032364  0.77182327  0.75041826    -0.22400
C834        C  0.02084406  0.75788504  0.76884526     0.20490
F835        F  0.04071560  0.77065560  0.78764318    -0.12360
F836        F  0.04063113  0.71781277  0.78771366    -0.14720
F837        F  0.45991272  0.77053451  0.71313279    -0.14720
F838        F  0.45983221  0.71793416  0.71321408    -0.12360
C839        C  0.02286310  0.98026555  0.77981805     0.25650
C840        C  0.50039941  0.96703769  0.76694709    -0.22460
C841        C  0.47821425  0.98069222  0.75417593     0.20560
C842        C  0.47886181  0.50765635  0.75242097     0.25590
C843        C  0.50169531  0.52089870  0.76348606    -0.22400
C844        C  0.02349891  0.50734463  0.77815141     0.20490
F845        F  0.04568397  0.52023535  0.78860437    -0.12360
F846        F  0.04451155  0.96692140  0.79150931    -0.14720
F847        F  0.45734746  0.52089335  0.73981079    -0.14720
F848        F  0.45619497  0.96781236  0.74281344    -0.12360
Zn849      Zn  0.00150282  0.09993055  0.30082756     1.49720
Zn850      Zn  0.99916541  0.09411044  0.20241325     1.49360
Zn851      Zn  0.96734197  0.13776733  0.24777018     1.49110
Zn852      Zn  0.53260710  0.13735575  0.24592791     1.49480
O853        O  0.49998348  0.11773611  0.24844569    -1.82070
O854        O  0.00648961  0.06259710  0.29047073    -0.72700
O855        O  0.96657866  0.09685775  0.16893914    -0.72520
O856        O  0.94266177  0.12716592  0.29424756    -0.72040
O857        O  0.99830245  0.05841666  0.22410319    -0.72720
O858        O  0.96751493  0.10011496  0.32998742    -0.72320
O859        O  0.94399748  0.12848954  0.19906810    -0.72900
O860        O  0.52223561  0.17565906  0.24916507    -0.72290
O861        O  0.53158209  0.09608576  0.16802979    -0.73050
O862        O  0.97832901  0.17576520  0.24902929    -0.72440
O863        O  0.55453868  0.12831611  0.19582918    -0.72900
O864        O  0.55772174  0.12535961  0.29063491    -0.72810
O865        O  0.53136612  0.10896471  0.33750485    -0.72600
C866        C  0.00254477  0.04881014  0.25904987     0.79190
C867        C  0.94596431  0.11049746  0.17236399     0.79680
C868        C  0.94554655  0.11053428  0.32267392     0.78640
C869        C  0.50029760  0.18776585  0.24965780     0.79010
C870        C  0.55211741  0.10999621  0.16979438     0.80150
C871        C  0.55417544  0.11441881  0.32497459     0.79200
Zn872      Zn  0.96772938  0.35081043  0.24540394     1.49720
Zn873      Zn  0.00126798  0.38703616  0.30214637     1.49360
Zn874      Zn  0.53305697  0.35092610  0.24439988     1.49110
Zn875      Zn  0.99987439  0.39480474  0.20369064     1.49480
O876        O  0.00038904  0.37047643  0.24822170    -1.82070
O877        O  0.94250240  0.36278426  0.29019539    -0.72700
O878        O  0.53287695  0.37979334  0.33614376    -0.72520
O879        O  0.52255668  0.31267687  0.24865367    -0.72040
O880        O  0.96817110  0.38365678  0.33394020    -0.72720
O881        O  0.97862355  0.31281988  0.24830465    -0.72320
O882        O  0.55866232  0.36383312  0.28789454    -0.72900
O883        O  0.53199613  0.39315495  0.16936463    -0.72290
O884        O  0.00336845  0.42501957  0.29368800    -0.73050
O885        O  0.55425548  0.35924844  0.19295826    -0.72440
O886        O  0.99857327  0.42996065  0.22664645    -0.72900
O887        O  0.96839429  0.39183118  0.16844216    -0.72810
O888        O  0.94575779  0.35906827  0.19470878    -0.72600
C889        C  0.94568425  0.37623048  0.32250381     0.79190
C890        C  0.55552528  0.37499779  0.32225096     0.79680
C891        C  0.00054295  0.30070647  0.24930180     0.78640
C892        C  0.55188499  0.37835000  0.16842085     0.79010
C893        C  0.00089612  0.43914914  0.26233054     0.80150
C894        C  0.94828811  0.37736386  0.16877318     0.79200
Zn895      Zn  0.59781025  0.49524483  0.45557186     1.49720
Zn896      Zn  0.64307878  0.02712472  0.99566895     1.49360
Zn897      Zn  0.60805353  0.49469370  0.05405393     1.49110
Zn898      Zn  0.64269010  0.46223710  0.99463000     1.49480
O899        O  0.62316801  0.49478846  0.99907578    -1.82070
O900        O  0.59961769  0.02777892  0.42204316    -0.72700
O901        O  0.63113367  0.05231883  0.04034729    -0.72520
O902        O  0.56994441  0.49607868  0.04748077    -0.72040
O903        O  0.63440914  0.04896971  0.44530278    -0.72720
O904        O  0.56282292  0.49511469  0.48042445    -0.72320
O905        O  0.61520504  0.02631657  0.08809419    -0.72900
O906        O  0.63058962  0.43638600  0.03811820    -0.72290
O907        O  0.68128660  0.01630524  0.99893928    -0.73050
O908        O  0.61272908  0.46162899  0.08548322    -0.72400
O909        O  0.68093126  0.47257564  0.99832004    -0.72900
O910        O  0.63396437  0.44139188  0.44321189    -0.72810
O911        O  0.59988264  0.46357914  0.41975974    -0.72600
C912        C  0.61479929  0.04737212  0.42149466     0.79190
C913        C  0.62031420  0.04899768  0.07489811     0.79680
C914        C  0.55481630  0.49577986  0.01699708     0.78640
C915        C  0.61871188  0.43920531  0.07194764     0.79010
C916        C  0.69325768  0.49432120  0.99961031     0.80150
C917        C  0.61482888  0.44377794  0.41864576     0.79200
Zn918      Zn  0.85722204  0.02666334  0.99761913     1.49720
Zn919      Zn  0.90247193  0.49421965  0.45850050     1.49360
Zn920      Zn  0.89202956  0.49385144  0.05630750     1.49110
Zn921      Zn  0.85730966  0.46158109  0.99617540     1.49480
O922        O  0.87692147  0.49408205  0.00141536    -1.82070
O923        O  0.86603658  0.04811662  0.44662930    -0.72700
O924        O  0.93732003  0.49493930  0.48316695    -0.72520
O925        O  0.88451981  0.02548765  0.09026657    -0.72040
O926        O  0.89997362  0.02564018  0.42332327    -0.72720
O927        O  0.86853190  0.05179475  0.04294404    -0.72320
O928        O  0.93029608  0.49534751  0.05021238    -0.72900
O929        O  0.86924406  0.43560084  0.03949312    -0.72290
O930        O  0.90096336  0.46245988  0.42342221    -0.73050
O931        O  0.88717452  0.46055574  0.08718565    -0.72440
O932        O  0.86596480  0.44081055  0.44442335    -0.72900
O933        O  0.81911671  0.47212957  0.99959690    -0.72810
O934        O  0.81897987  0.01586673  0.00019461    -0.72600
C935        C  0.88505810  0.04540895  0.42186001     0.79190
C936        C  0.94540168  0.49543481  0.01965640     0.79680
C937        C  0.87906392  0.04826340  0.07767941     0.78640
C938        C  0.88113585  0.43822042  0.07332916     0.79010
C939        C  0.88566026  0.44304161  0.42088640     0.80150
C940        C  0.80689677  0.49396451  0.00068675     0.79200
C941        C  0.76375758  0.01664760  0.01186620     0.25650
C942        C  0.77781630  0.49384332  0.00196458    -0.22460
C943        C  0.76369573  0.47105219  0.49247690     0.20560
C944        C  0.73638402  0.47113376  0.49220043     0.25590
C945        C  0.72232603  0.49403362  0.00140618    -0.22400
C946        C  0.73642277  0.01673319  0.01159010     0.20490
F947        F  0.72384603  0.03915647  0.02168545    -0.12360
F948        F  0.77636832  0.03898491  0.02219774    -0.14720
F949        F  0.72382841  0.44877428  0.48182168    -0.14720
F950        F  0.77622328  0.44860836  0.48233085    -0.12360
C951        C  0.98668981  0.47205932  0.02734518     0.25650
C952        C  0.97314301  0.49574348  0.02626812    -0.22460
C953        C  0.98648081  0.01956633  0.52603098     0.20560
C954        C  0.51361111  0.01963848  0.52495394     0.25590
C955        C  0.52711446  0.49589243  0.02405719    -0.22400
C956        C  0.51379067  0.47213475  0.02623885     0.20490
F957        F  0.52700850  0.44917277  0.02520993    -0.12360
F958        F  0.97361785  0.44901971  0.02717792    -0.14720
F959        F  0.52668312  0.04263195  0.52277504    -0.14720
F960        F  0.97320994  0.04248495  0.52467739    -0.12360
C961        C  0.58472185  0.40523268  0.07538668     0.25650
C962        C  0.60723291  0.41642018  0.09271324    -0.22460
C963        C  0.61379114  0.41027779  0.13310196     0.20560
C964        C  0.59715592  0.39452047  0.15660447     0.25590
C965        C  0.57328119  0.38560923  0.14040623    -0.22400
C966        C  0.56768096  0.39032924  0.09921283     0.20490
F967        F  0.54455934  0.38244872  0.08308640    -0.12360
F968        F  0.57756362  0.41143153  0.03674651    -0.14720
F969        F  0.60283281  0.39061215  0.19653813    -0.14720
F970        F  0.63519298  0.42114807  0.15063714    -0.12360
C971        C  0.60292562  0.42750529  0.34943831     0.25650
C972        C  0.60767409  0.42227981  0.39072821    -0.22460
C973        C  0.59936819  0.39829967  0.40710321     0.20560
C974        C  0.58411991  0.38113198  0.38366053     0.25590
C975        C  0.57794809  0.38723666  0.34312164    -0.22400
C976        C  0.58860089  0.40990623  0.32563350     0.20490
F977        F  0.58243023  0.41657773  0.28677347    -0.12360
F978        F  0.61035619  0.45063683  0.33307422    -0.14720
F979        F  0.57379681  0.35957119  0.40133781    -0.14720
F980        F  0.60340862  0.39291748  0.44709956    -0.12360
C981        C  0.88601373  0.40862701  0.13372711     0.25650
C982        C  0.89268699  0.41529015  0.09358722    -0.22460
C983        C  0.91534590  0.40446141  0.07611451     0.20560
C984        C  0.93245060  0.38946868  0.09966509     0.25590
C985        C  0.92679634  0.38432687  0.14074177    -0.22400
C986        C  0.90272980  0.39278361  0.15695220     0.20490
F987        F  0.89694779  0.38844510  0.19674610    -0.12360
F988        F  0.86442070  0.41909642  0.15135599    -0.14720
F989        F  0.95571218  0.38199980  0.08347202    -0.14720
F990        F  0.92257962  0.41113357  0.03768825    -0.12360
C991        C  0.91380372  0.41190627  0.32725694     0.25650
C992        C  0.92303387  0.38818556  0.34312145    -0.22460
C993        C  0.91517811  0.38054336  0.38230760     0.20560
C994        C  0.89968714  0.39728372  0.40627926     0.25590
C995        C  0.89275041  0.42218344  0.39174390    -0.22400
C996        C  0.89911182  0.42889609  0.35151174     0.20490
F997        F  0.89305797  0.45291331  0.33694680    -0.12360
F998        F  0.92165559  0.41999318  0.28980209    -0.14720
F999        F  0.89408804  0.39045583  0.44526381    -0.14720
F1000       F  0.92414670  0.35790270  0.39842290    -0.12360
C1001       C  0.57237149  0.10143002  0.10172778     0.25650
C1002       C  0.57456152  0.10209384  0.14430255    -0.22460
C1003       C  0.59564544  0.08916808  0.16298149     0.20560
C1004       C  0.61261942  0.07356902  0.13983754     0.25590
C1005       C  0.60936004  0.07147131  0.09748680    -0.22400
C1006       C  0.58994306  0.08663289  0.07840997     0.20490
F1007       F  0.58583642  0.08446720  0.03769661    -0.12360
F1008       F  0.55199148  0.11341401  0.08306474    -0.14720
F1009       F  0.63089394  0.05889617  0.15909529    -0.14720
F1010       F  0.59796891  0.08921202  0.20417634    -0.12360
C1011       C  0.59177084  0.08405480  0.32929323     0.25650
C1012       C  0.57658592  0.10369450  0.34788374    -0.22460
C1013       C  0.57865599  0.10751321  0.39012038     0.20560
C1014       C  0.59426613  0.09087310  0.41368243     0.25590
C1015       C  0.60723466  0.06959821  0.39555462    -0.22400
C1016       C  0.60659339  0.06684345  0.35304903     0.20490
F1017       F  0.61850896  0.04618830  0.33494338    -0.12360
F1018       F  0.58960011  0.07940290  0.28870152    -0.14720
F1019       F  0.59433922  0.09375800  0.45478819    -0.14720
F1020       F  0.56397217  0.12603639  0.40888797    -0.12360
C1021       C  0.92241392  0.10448293  0.10603762     0.25650
C1022       C  0.92290908  0.10217262  0.14861929    -0.22460
C1023       C  0.90459990  0.08583048  0.16778170     0.20560
C1024       C  0.88796569  0.06997416  0.14460126     0.25590
C1025       C  0.88883517  0.07071442  0.10181929    -0.22400
C1026       C  0.90511777  0.08925458  0.08279387     0.20490
F1027       F  0.90668913  0.09030346  0.04152414    -0.12360
F1028       F  0.94010621  0.11987254  0.08684332    -0.14720
F1029       F  0.87259936  0.05229127  0.16386467    -0.14720
F1030       F  0.90495484  0.08295841  0.20890119    -0.12360
C1031       C  0.91355786  0.07509427  0.32796647     0.25650
C1032       C  0.92269922  0.09903745  0.34322057    -0.22460
C1033       C  0.91438684  0.10746672  0.38183537     0.20560
C1034       C  0.89873619  0.09112695  0.40611443     0.25590
C1035       C  0.89190829  0.06599003  0.39226861    -0.22400
C1036       C  0.89845490  0.05866642  0.35231320     0.20490
F1037       F  0.89231092  0.03450435  0.33826533    -0.12360
F1038       F  0.92177755  0.06630374  0.29103494    -0.14720
F1039       F  0.89295230  0.09856439  0.44480966    -0.14720
F1040       F  0.92328513  0.13034395  0.39734850    -0.12360
C1041       C  0.52080792  0.23058367  0.26885929     0.25650
C1042       C  0.50024361  0.21665405  0.25045448    -0.22460
C1043       C  0.97965379  0.23062196  0.23229876     0.20560
C1044       C  0.97969358  0.25786136  0.23228263     0.25590
C1045       C  0.00032622  0.27182318  0.25042795    -0.22400
C1046       C  0.52084815  0.25788258  0.26884605     0.20490
F1047       F  0.54072123  0.27065074  0.28764398    -0.12360
F1048       F  0.54063650  0.21780790  0.28769792    -0.14720
F1049       F  0.95991238  0.27053980  0.21314980    -0.14720
F1050       F  0.95983170  0.21793955  0.21321303    -0.12360
C1051       C  0.52288151  0.48027002  0.27982349     0.25650
C1052       C  0.00042230  0.46704000  0.26693830    -0.22460
C1053       C  0.97823811  0.48069289  0.25415807     0.20560
C1054       C  0.97888286  0.00765687  0.25240629     0.25590
C1055       C  0.00171243  0.02090149  0.26348383    -0.22400
C1056       C  0.52351452  0.00734946  0.27815945     0.20490
F1057       F  0.54569575  0.02024249  0.28862518    -0.12360
F1058       F  0.54452867  0.46692804  0.29152647    -0.14720
F1059       F  0.95736914  0.02089168  0.23978773    -0.14720
F1060       F  0.95622147  0.46781163  0.24278679    -0.12360
Zn1061     Zn  0.00150424  0.09992592  0.80084145     1.49720
Zn1062     Zn  0.99916012  0.09411218  0.70242535     1.49360
Zn1063     Zn  0.96734136  0.13776648  0.74779176     1.49110
Zn1064     Zn  0.53260655  0.13735572  0.74594528     1.49480
O1065       O  0.49998286  0.11773509  0.74846265    -1.82070
O1066       O  0.00647831  0.06259231  0.79047553    -0.72700
O1067       O  0.96657500  0.09686693  0.66894714    -0.72520
O1068       O  0.94266352  0.12716022  0.79426829    -0.72040
O1069       O  0.99829030  0.05841594  0.72410768    -0.72720
O1070       O  0.96752095  0.10011548  0.83001288    -0.72320
O1071       O  0.94399462  0.12849329  0.69909053    -0.72900
O1072       O  0.52223421  0.17565940  0.74918002    -0.72290
O1073       O  0.53157753  0.09608664  0.66804461    -0.73050
O1074       O  0.97832757  0.17576453  0.74905085    -0.72440
O1075       O  0.55453530  0.12831640  0.69584402    -0.72900
O1076       O  0.55772544  0.12536116  0.79065016    -0.72810
O1077       O  0.53137546  0.10894616  0.83751093    -0.72600
C1078       C  0.00253067  0.04880732  0.75905353     0.79190
C1079       C  0.94596080  0.11050626  0.67237822     0.79680
C1080       C  0.94555106  0.11053094  0.82269730     0.78640
C1081       C  0.50029590  0.18776572  0.74967421     0.79010
C1082       C  0.55211296  0.10999694  0.66980876     0.80150
C1083       C  0.55418278  0.11441149  0.82498404     0.79200
Zn1084     Zn  0.96772807  0.35081147  0.74537093     1.49720
Zn1085     Zn  0.00125536  0.38702837  0.80213876     1.49360
Zn1086     Zn  0.53305506  0.35092613  0.74438885     1.49110
Zn1087     Zn  0.99987616  0.39480938  0.70367937     1.49480
O1088       O  0.00038673  0.37047690  0.74820589    -1.82070
O1089       O  0.94250026  0.36278436  0.79015816    -0.72700
O1090       O  0.53287896  0.37981630  0.83611718    -0.72520
O1091       O  0.52255385  0.31267727  0.74864465    -0.72040
O1092       O  0.96817023  0.38361087  0.83395402    -0.72720
O1093       O  0.97862086  0.31282002  0.74827467    -0.72320
O1094       O  0.55866237  0.36383284  0.78788343    -0.72900
O1095       O  0.53199670  0.39315440  0.66935284    -0.72290
O1096       O  0.00332085  0.42501456  0.79369093    -0.73050
O1097       O  0.55425276  0.35924531  0.69294595    -0.72440
O1098       O  0.99858036  0.42996377  0.72664126    -0.72900
O1099       O  0.96839440  0.39184639  0.66843109    -0.72810
O1100       O  0.94575875  0.35907568  0.69467519    -0.72600
C1101       C  0.94568194  0.37620494  0.82249221     0.79190
C1102       C  0.55552639  0.37500861  0.82223152     0.79680
C1103       C  0.00054012  0.30070667  0.74928440     0.78640
C1104       C  0.55188359  0.37834682  0.66840820     0.79010
C1105       C  0.00087354  0.43914771  0.76233274     0.80150
C1106       C  0.94828846  0.37737865  0.66875207     0.79200
Zn1107     Zn  0.59782201  0.49524357  0.95557574     1.49720
Zn1108     Zn  0.64306354  0.02713121  0.49566786     1.49360
Zn1109     Zn  0.60803774  0.49470053  0.55404844     1.49110
Zn1110     Zn  0.64268312  0.46224526  0.49463043     1.49480
O1111       O  0.62315539  0.49479354  0.49907357    -1.82070
O1112       O  0.59962890  0.02777971  0.92205207    -0.72700
O1113       O  0.63111731  0.05232284  0.54034679    -0.72520
O1114       O  0.56992950  0.49609889  0.54747262    -0.72040
O1115       O  0.63442660  0.04896434  0.94530218    -0.72720
O1116       O  0.56283638  0.49511168  0.98043225    -0.72320
O1117       O  0.61520025  0.02631716  0.58809818    -0.72900
O1118       O  0.63058943  0.43639212  0.53811899    -0.72290
O1119       O  0.68127261  0.01631826  0.49893815    -0.73050
O1120       O  0.61270037  0.46162991  0.58546523    -0.72400
O1121       O  0.68092266  0.47258885  0.49831899    -0.72900
O1122       O  0.63396891  0.44138636  0.94320880    -0.72810
O1123       O  0.59989172  0.46358037  0.91975679    -0.72600
C1124       C  0.61481368  0.04737037  0.92149936     0.79190
C1125       C  0.62030372  0.04899945  0.57490132     0.79680
C1126       C  0.55480200  0.49579357  0.51698842     0.78640
C1127       C  0.61869937  0.43920840  0.57193839     0.79010
C1128       C  0.69324638  0.49433400  0.49960908     0.80150
C1129       C  0.61483489  0.44377688  0.91864082     0.79200
Zn1130     Zn  0.85720961  0.02669053  0.49761903     1.49720
Zn1131     Zn  0.90248430  0.49419335  0.95849707     1.49360
Zn1132     Zn  0.89201474  0.49387725  0.55631044     1.49110
Zn1133     Zn  0.85729918  0.46160629  0.49617456     1.49480
O1134       O  0.87690846  0.49410847  0.50141657    -1.82070
O1135       O  0.86604922  0.04809067  0.94663315    -0.72700
O1136       O  0.93733391  0.49491063  0.98316166    -0.72520
O1137       O  0.88450393  0.02551305  0.59026919    -0.72040
O1138       O  0.89998685  0.02561653  0.92332342    -0.72720
O1139       O  0.86852143  0.05182208  0.54294470    -0.72320
O1140       O  0.93028168  0.49537298  0.55021760    -0.72900
O1141       O  0.86923702  0.43562633  0.53949098    -0.72290
O1142       O  0.90097187  0.46243434  0.92341662    -0.73050
O1143       O  0.88715946  0.46058171  0.58718991    -0.72440
O1144       O  0.86597453  0.44078553  0.94442529    -0.72900
O1145       O  0.81910644  0.47215423  0.49959736    -0.72810
O1146       O  0.81896703  0.01589170  0.50019577    -0.72600
C1147       C  0.88507107  0.04538534  0.92186417     0.79190
C1148       C  0.94538746  0.49546176  0.51966179     0.79680
C1149       C  0.87905147  0.04828946  0.57768145     0.78640
C1150       C  0.88112654  0.43824599  0.57332900     0.79010
C1151       C  0.88566807  0.44301633  0.92088454     0.80150
C1152       C  0.80688528  0.49399037  0.50068772     0.79200
C1153       C  0.76374399  0.01666875  0.51187045     0.25650
C1154       C  0.77780481  0.49386475  0.50196452    -0.22460
C1155       C  0.76370513  0.47102964  0.99248100     0.20560
C1156       C  0.73639330  0.47111508  0.99220577     0.25590
C1157       C  0.72231464  0.49405189  0.50140542    -0.22400
C1158       C  0.73640908  0.01675043  0.51159313     0.20490
F1159       F  0.72382984  0.03917242  0.52169287    -0.12360
F1160       F  0.77635266  0.03900555  0.52220612    -0.14720
F1161       F  0.72383544  0.44875516  0.98183140    -0.14720
F1162       F  0.77623061  0.44858469  0.98233954    -0.12360
C1163       C  0.98667275  0.47208169  0.52734437     0.25650
C1164       C  0.97312879  0.49576755  0.52627279    -0.22460
C1165       C  0.98649212  0.01954392  0.02602840     0.20560
C1166       C  0.51362244  0.01961940  0.02495772     0.25590
C1167       C  0.52710004  0.49590976  0.52404804    -0.22400
C1168       C  0.51377342  0.47215370  0.52623071     0.20490
F1169       F  0.52698819  0.44919003  0.52519742    -0.12360
F1170       F  0.97359789  0.44904370  0.52717809    -0.14720
F1171       F  0.52669178  0.04261446  0.02277985    -0.14720
F1172       F  0.97321863  0.04246093  0.02467116    -0.12360
C1173       C  0.58471672  0.40522921  0.57537364     0.25650
C1174       C  0.60722618  0.41641958  0.59270052    -0.22460
C1175       C  0.61378646  0.41027661  0.63308802     0.20560
C1176       C  0.59715366  0.39451680  0.65659024     0.25590
C1177       C  0.57327958  0.38560357  0.64039253    -0.22400
C1178       C  0.56767839  0.39032279  0.59919932     0.20490
F1179       F  0.54455741  0.38243981  0.58307355    -0.12360
F1180       F  0.57755692  0.41142846  0.53673430    -0.14720
F1181       F  0.60283128  0.39060893  0.69652375    -0.14720
F1182       F  0.63518684  0.42114981  0.65062310    -0.12360
C1183       C  0.60292853  0.42751206  0.84942950     0.25650
C1184       C  0.60767833  0.42228185  0.89071770    -0.22460
C1185       C  0.59937301  0.39829960  0.90708608     0.20560
C1186       C  0.58412437  0.38113441  0.88363916     0.25590
C1187       C  0.57795135  0.38724372  0.84310236    -0.22400
C1188       C  0.58860312  0.40991570  0.82562051     0.20490
F1189       F  0.58243110  0.41659172  0.78676293    -0.12360
F1190       F  0.61035868  0.45064546  0.83307138    -0.14720
F1191       F  0.57380138  0.35957178  0.90131113    -0.14720
F1192       F  0.60341423  0.39291274  0.94708069    -0.12360
C1193       C  0.88601181  0.40864768  0.63372114     0.25650
C1194       C  0.89268310  0.41531656  0.59358272    -0.22460
C1195       C  0.91534327  0.40449313  0.57610584     0.20560
C1196       C  0.93244994  0.38949858  0.59965031     0.25590
C1197       C  0.92679644  0.38434886  0.64072479    -0.22400
C1198       C  0.90272982  0.39280215  0.65693975     0.20490
F1199       F  0.89694886  0.38845698  0.69673222    -0.12360
F1200       F  0.86441800  0.41911232  0.65135465    -0.14720
F1201       F  0.95571192  0.38203440  0.58345345    -0.14720
F1202       F  0.92257544  0.41117134  0.53768148    -0.12360
C1203       C  0.91379567  0.41187539  0.82724773     0.25650
C1204       C  0.92303265  0.38815793  0.84311468    -0.22460
C1205       C  0.91518672  0.38051940  0.88230723     0.20560
C1206       C  0.89969826  0.39725996  0.90628167     0.25590
C1207       C  0.89275541  0.42215708  0.89174310    -0.22400
C1208       C  0.89910753  0.42886643  0.85150610     0.20490
F1209       F  0.89304861  0.45288179  0.83693885    -0.12360
F1210       F  0.92163935  0.41995954  0.78978722    -0.14720
F1211       F  0.89410796  0.39043548  0.94527077    -0.14720
F1212       F  0.92416205  0.35788192  0.89842441    -0.12360
C1213       C  0.57236648  0.10143520  0.60174088     0.25650
C1214       C  0.57455616  0.10209462  0.64431577    -0.22460
C1215       C  0.59563796  0.08916437  0.66299256     0.20560
C1216       C  0.61260991  0.07356503  0.63984590     0.25590
C1217       C  0.60935060  0.07147150  0.59749474    -0.22400
C1218       C  0.58993622  0.08663776  0.57842031     0.20490
F1219       F  0.58583019  0.08447699  0.53770611    -0.12360
F1220       F  0.55198841  0.11342393  0.58308008    -0.14720
F1221       F  0.63088236  0.05888822  0.65910104    -0.14720
F1222       F  0.59796101  0.08920451  0.70418739    -0.12360
C1223       C  0.59178378  0.08405381  0.82929946     0.25650
C1224       C  0.57659658  0.10369140  0.84789083    -0.22460
C1225       C  0.57866696  0.10750977  0.89012755     0.20560
C1226       C  0.59427915  0.09087095  0.91368875     0.25590
C1227       C  0.60724956  0.06959743  0.89556030    -0.22400
C1228       C  0.60660858  0.06684367  0.85305444     0.20490
F1229       F  0.61852614  0.04619003  0.83494778    -0.12360
F1230       F  0.58961300  0.07940223  0.78870776    -0.14720
F1231       F  0.59435239  0.09375540  0.95479449    -0.14720
F1232       F  0.56398097  0.12603076  0.90889629    -0.12360
C1233       C  0.92241292  0.10449807  0.60604782     0.25650
C1234       C  0.92290498  0.10218695  0.64862958    -0.22460
C1235       C  0.90458979  0.08584986  0.66778863     0.20560
C1236       C  0.88795256  0.06999850  0.64460494     0.25590
C1237       C  0.88882510  0.07073885  0.60182300    -0.22400
C1238       C  0.90511387  0.08927494  0.58280084     0.20490
F1239       F  0.90668791  0.09032413  0.54153136    -0.12360
F1240       F  0.94011038  0.11988340  0.58685670    -0.14720
F1241       F  0.87258013  0.05231956  0.66386536    -0.14720
F1242       F  0.90494128  0.08297707  0.70890813    -0.12360
C1243       C  0.91356631  0.07508740  0.82797888     0.25650
C1244       C  0.92270545  0.09902936  0.84324125    -0.22460
C1245       C  0.91439470  0.10745119  0.88186068     0.20560
C1246       C  0.89874694  0.09110589  0.90613478     0.25590
C1247       C  0.89192126  0.06597040  0.89227991    -0.22400
C1248       C  0.89846732  0.05865342  0.85232148     0.20490
F1249       F  0.89232609  0.03449259  0.83826552    -0.12360
F1250       F  0.92178502  0.06630395  0.79104267    -0.14720
F1251       F  0.89296374  0.09853668  0.94483336    -0.14720
F1252       F  0.92329164  0.13032666  0.89738208    -0.12360
C1253       C  0.52080395  0.23058610  0.76886750     0.25650
C1254       C  0.50024111  0.21665400  0.75046369    -0.22460
C1255       C  0.97965266  0.23061937  0.73229941     0.20560
C1256       C  0.97969246  0.25785884  0.73227373     0.25590
C1257       C  0.00032364  0.27182327  0.75041826    -0.22400
C1258       C  0.52084407  0.25788504  0.76884526     0.20490
F1259       F  0.54071561  0.27065560  0.78764318    -0.12360
F1260       F  0.54063114  0.21781277  0.78771366    -0.14720
F1261       F  0.95991272  0.27053451  0.71313279    -0.14720
F1262       F  0.95983221  0.21793416  0.71321408    -0.12360
C1263       C  0.52286310  0.48026555  0.77981807     0.25650
C1264       C  0.00039944  0.46703770  0.76694709    -0.22460
C1265       C  0.97821426  0.48069222  0.75417595     0.20560
C1266       C  0.97886181  0.00765635  0.75242097     0.25590
C1267       C  0.00169531  0.02089870  0.76348605    -0.22400
C1268       C  0.52349889  0.00734463  0.77815143     0.20490
F1269       F  0.54568394  0.02023535  0.78860442    -0.12360
F1270       F  0.54451155  0.46692140  0.79150934    -0.14720
F1271       F  0.95734745  0.02089336  0.73981081    -0.14720
F1272       F  0.95619498  0.46781236  0.74281349    -0.12360
Zn1273     Zn  0.00150282  0.59993055  0.30082756     1.49720
Zn1274     Zn  0.99916541  0.59411044  0.20241325     1.49360
Zn1275     Zn  0.96734197  0.63776733  0.24777019     1.49110
Zn1276     Zn  0.53260710  0.63735575  0.24592791     1.49480
O1277       O  0.49998348  0.61773611  0.24844569    -1.82070
O1278       O  0.00648963  0.56259710  0.29047073    -0.72700
O1279       O  0.96657865  0.59685775  0.16893915    -0.72520
O1280       O  0.94266177  0.62716592  0.29424757    -0.72040
O1281       O  0.99830245  0.55841666  0.22410319    -0.72720
O1282       O  0.96751492  0.60011495  0.32998741    -0.72320
O1283       O  0.94399747  0.62848954  0.19906811    -0.72900
O1284       O  0.52223561  0.67565906  0.24916506    -0.72290
O1285       O  0.53158209  0.59608576  0.16802979    -0.73050
O1286       O  0.97832901  0.67576520  0.24902929    -0.72440
O1287       O  0.55453868  0.62831611  0.19582918    -0.72900
O1288       O  0.55772173  0.62535961  0.29063491    -0.72810
O1289       O  0.53136612  0.60896471  0.33750485    -0.72600
C1290       C  0.00254479  0.54881014  0.25904987     0.79190
C1291       C  0.94596430  0.61049746  0.17236400     0.79680
C1292       C  0.94554655  0.61053428  0.32267392     0.78640
C1293       C  0.50029760  0.68776585  0.24965779     0.79010
C1294       C  0.55211741  0.60999621  0.16979439     0.80150
C1295       C  0.55417543  0.61441881  0.32497459     0.79200
Zn1296     Zn  0.96772938  0.85081043  0.24540393     1.49720
Zn1297     Zn  0.00126798  0.88703616  0.30214637     1.49360
Zn1298     Zn  0.53305697  0.85092610  0.24439988     1.49110
Zn1299     Zn  0.99987439  0.89480474  0.20369063     1.49480
O1300       O  0.00038904  0.87047643  0.24822169    -1.82070
O1301       O  0.94250240  0.86278427  0.29019537    -0.72700
O1302       O  0.53287695  0.87979334  0.33614376    -0.72520
O1303       O  0.52255668  0.81267687  0.24865367    -0.72040
O1304       O  0.96817110  0.88365675  0.33394022    -0.72720
O1305       O  0.97862355  0.81281988  0.24830465    -0.72320
O1306       O  0.55866232  0.86383312  0.28789455    -0.72900
O1307       O  0.53199613  0.89315496  0.16936463    -0.72290
O1308       O  0.00336841  0.92501956  0.29368800    -0.73050
O1309       O  0.55425548  0.85924844  0.19295826    -0.72440
O1310       O  0.99857327  0.92996065  0.22664644    -0.72900
O1311       O  0.96839429  0.89183118  0.16844215    -0.72810
O1312       O  0.94575780  0.85906827  0.19470877    -0.72600
C1313       C  0.94568425  0.87623047  0.32250381     0.79190
C1314       C  0.55552528  0.87499779  0.32225096     0.79680
C1315       C  0.00054295  0.80070647  0.24930180     0.78640
C1316       C  0.55188500  0.87835000  0.16842086     0.79010
C1317       C  0.00089610  0.93914914  0.26233054     0.80150
C1318       C  0.94828811  0.87736385  0.16877317     0.79200
Zn1319     Zn  0.59781026  0.99524483  0.45557185     1.49720
Zn1320     Zn  0.64307878  0.52712472  0.99566895     1.49360
Zn1321     Zn  0.60805353  0.99469369  0.05405393     1.49110
Zn1322     Zn  0.64269010  0.96223709  0.99463000     1.49480
O1323       O  0.62316801  0.99478845  0.99907578    -1.82070
O1324       O  0.59961768  0.52777892  0.42204317    -0.72700
O1325       O  0.63113367  0.55231883  0.04034729    -0.72520
O1326       O  0.56994441  0.99607866  0.04748078    -0.72040
O1327       O  0.63440914  0.54896971  0.44530278    -0.72720
O1328       O  0.56282292  0.99511470  0.48042445    -0.72320
O1329       O  0.61520505  0.52631657  0.08809420    -0.72900
O1330       O  0.63058962  0.93638600  0.03811820    -0.72290
O1331       O  0.68128659  0.51630525  0.99893928    -0.73050
O1332       O  0.61272910  0.96162899  0.08548323    -0.72400
O1333       O  0.68093127  0.97257563  0.99832004    -0.72900
O1334       O  0.63396438  0.94139188  0.44321188    -0.72810
O1335       O  0.59988264  0.96357914  0.41975974    -0.72600
C1336       C  0.61479929  0.54737213  0.42149466     0.79190
C1337       C  0.62031420  0.54899768  0.07489811     0.79680
C1338       C  0.55481630  0.99577984  0.01699709     0.78640
C1339       C  0.61871189  0.93920531  0.07194764     0.79010
C1340       C  0.69325769  0.99432119  0.99961031     0.80150
C1341       C  0.61482889  0.94377794  0.41864575     0.79200
Zn1342     Zn  0.85722204  0.52666334  0.99761913     1.49720
Zn1343     Zn  0.90247193  0.99421966  0.45850050     1.49360
Zn1344     Zn  0.89202956  0.99385144  0.05630750     1.49110
Zn1345     Zn  0.85730967  0.96158109  0.99617539     1.49480
O1346       O  0.87692148  0.99408205  0.00141536    -1.82070
O1347       O  0.86603658  0.54811662  0.44662931    -0.72700
O1348       O  0.93732004  0.99493930  0.48316696    -0.72520
O1349       O  0.88451981  0.52548765  0.09026658    -0.72040
O1350       O  0.89997361  0.52564017  0.42332326    -0.72720
O1351       O  0.86853190  0.55179475  0.04294405    -0.72320
O1352       O  0.93029608  0.99534750  0.05021239    -0.72900
O1353       O  0.86924407  0.93560084  0.03949311    -0.72290
O1354       O  0.90096337  0.96245989  0.42342220    -0.73050
O1355       O  0.88717451  0.96055574  0.08718566    -0.72440
O1356       O  0.86596480  0.94081055  0.44442334    -0.72900
O1357       O  0.81911671  0.97212957  0.99959690    -0.72810
O1358       O  0.81897986  0.51586673  0.00019461    -0.72600
C1359       C  0.88505810  0.54540894  0.42186001     0.79190
C1360       C  0.94540168  0.99543480  0.01965641     0.79680
C1361       C  0.87906391  0.54826340  0.07767942     0.78640
C1362       C  0.88113585  0.93822042  0.07332915     0.79010
C1363       C  0.88566027  0.94304161  0.42088639     0.80150
C1364       C  0.80689678  0.99396451  0.00068675     0.79200
C1365       C  0.76375758  0.51664760  0.01186621     0.25650
C1366       C  0.77781630  0.99384332  0.00196458    -0.22460
C1367       C  0.76369573  0.97105219  0.49247690     0.20560
C1368       C  0.73638402  0.97113376  0.49220043     0.25590
C1369       C  0.72232604  0.99403361  0.00140618    -0.22400
C1370       C  0.73642277  0.51673319  0.01159011     0.20490
F1371       F  0.72384603  0.53915647  0.02168545    -0.12360
F1372       F  0.77636832  0.53898491  0.02219775    -0.14720
F1373       F  0.72382841  0.94877428  0.48182169    -0.14720
F1374       F  0.77622329  0.94860836  0.48233085    -0.12360
C1375       C  0.98668982  0.97205932  0.02734522     0.25650
C1376       C  0.97314301  0.99574347  0.02626814    -0.22460
C1377       C  0.98648081  0.51956634  0.52603094     0.20560
C1378       C  0.51361111  0.51963847  0.52495397     0.25590
C1379       C  0.52711446  0.99589240  0.02405720    -0.22400
C1380       C  0.51379067  0.97213471  0.02623882     0.20490
F1381       F  0.52700850  0.94917274  0.02520984    -0.12360
F1382       F  0.97361786  0.94901971  0.02717797    -0.14720
F1383       F  0.52668312  0.54263194  0.52277508    -0.14720
F1384       F  0.97320993  0.54248496  0.52467732    -0.12360
C1385       C  0.58472185  0.90523268  0.07538669     0.25650
C1386       C  0.60723292  0.91642018  0.09271324    -0.22460
C1387       C  0.61379114  0.91027779  0.13310197     0.20560
C1388       C  0.59715592  0.89452047  0.15660448     0.25590
C1389       C  0.57328120  0.88560923  0.14040624    -0.22400
C1390       C  0.56768096  0.89032924  0.09921284     0.20490
F1391       F  0.54455934  0.88244872  0.08308640    -0.12360
F1392       F  0.57756363  0.91143153  0.03674651    -0.14720
F1393       F  0.60283280  0.89061216  0.19653814    -0.14720
F1394       F  0.63519298  0.92114807  0.15063715    -0.12360
C1395       C  0.60292562  0.92750529  0.34943831     0.25650
C1396       C  0.60767409  0.92227981  0.39072821    -0.22460
C1397       C  0.59936819  0.89829967  0.40710321     0.20560
C1398       C  0.58411991  0.88113198  0.38366053     0.25590
C1399       C  0.57794809  0.88723666  0.34312164    -0.22400
C1400       C  0.58860089  0.90990623  0.32563350     0.20490
F1401       F  0.58243023  0.91657773  0.28677347    -0.12360
F1402       F  0.61035619  0.95063682  0.33307422    -0.14720
F1403       F  0.57379681  0.85957119  0.40133781    -0.14720
F1404       F  0.60340863  0.89291748  0.44709956    -0.12360
C1405       C  0.88601373  0.90862701  0.13372711     0.25650
C1406       C  0.89268699  0.91529015  0.09358721    -0.22460
C1407       C  0.91534591  0.90446141  0.07611450     0.20560
C1408       C  0.93245061  0.88946868  0.09966508     0.25590
C1409       C  0.92679634  0.88432687  0.14074176    -0.22400
C1410       C  0.90272980  0.89278361  0.15695219     0.20490
F1411       F  0.89694780  0.88844510  0.19674609    -0.12360
F1412       F  0.86442070  0.91909642  0.15135598    -0.14720
F1413       F  0.95571219  0.88199980  0.08347201    -0.14720
F1414       F  0.92257962  0.91113357  0.03768824    -0.12360
C1415       C  0.91380373  0.91190627  0.32725694     0.25650
C1416       C  0.92303387  0.88818556  0.34312145    -0.22460
C1417       C  0.91517811  0.88054336  0.38230760     0.20560
C1418       C  0.89968714  0.89728372  0.40627925     0.25590
C1419       C  0.89275042  0.92218344  0.39174389    -0.22400
C1420       C  0.89911183  0.92889610  0.35151174     0.20490
F1421       F  0.89305799  0.95291331  0.33694680    -0.12360
F1422       F  0.92165561  0.91999318  0.28980209    -0.14720
F1423       F  0.89408803  0.89045583  0.44526380    -0.14720
F1424       F  0.92414670  0.85790269  0.39842289    -0.12360
C1425       C  0.57237150  0.60143002  0.10172779     0.25650
C1426       C  0.57456152  0.60209384  0.14430256    -0.22460
C1427       C  0.59564544  0.58916808  0.16298150     0.20560
C1428       C  0.61261941  0.57356901  0.13983755     0.25590
C1429       C  0.60936004  0.57147131  0.09748681    -0.22400
C1430       C  0.58994307  0.58663290  0.07840998     0.20490
F1431       F  0.58583643  0.58446721  0.03769662    -0.12360
F1432       F  0.55199148  0.61341402  0.08306474    -0.14720
F1433       F  0.63089393  0.55889616  0.15909530    -0.14720
F1434       F  0.59796891  0.58921201  0.20417635    -0.12360
C1435       C  0.59177084  0.58405480  0.32929324     0.25650
C1436       C  0.57658591  0.60369450  0.34788374    -0.22460
C1437       C  0.57865599  0.60751321  0.39012038     0.20560
C1438       C  0.59426612  0.59087310  0.41368244     0.25590
C1439       C  0.60723465  0.56959821  0.39555462    -0.22400
C1440       C  0.60659339  0.56684345  0.35304903     0.20490
F1441       F  0.61850896  0.54618831  0.33494339    -0.12360
F1442       F  0.58960010  0.57940290  0.28870152    -0.14720
F1443       F  0.59433921  0.59375800  0.45478820    -0.14720
F1444       F  0.56397217  0.62603639  0.40888798    -0.12360
C1445       C  0.92241391  0.60448293  0.10603763     0.25650
C1446       C  0.92290907  0.60217262  0.14861930    -0.22460
C1447       C  0.90459989  0.58583048  0.16778171     0.20560
C1448       C  0.88796568  0.56997416  0.14460127     0.25590
C1449       C  0.88883517  0.57071442  0.10181930    -0.22400
C1450       C  0.90511776  0.58925458  0.08279388     0.20490
F1451       F  0.90668912  0.59030346  0.04152415    -0.12360
F1452       F  0.94010620  0.61987254  0.08684333    -0.14720
F1453       F  0.87259936  0.55229126  0.16386467    -0.14720
F1454       F  0.90495484  0.58295841  0.20890120    -0.12360
C1455       C  0.91355786  0.57509426  0.32796647     0.25650
C1456       C  0.92269922  0.59903744  0.34322057    -0.22460
C1457       C  0.91438683  0.60746671  0.38183537     0.20560
C1458       C  0.89873618  0.59112695  0.40611442     0.25590
C1459       C  0.89190829  0.56599003  0.39226861    -0.22400
C1460       C  0.89845489  0.55866641  0.35231320     0.20490
F1461       F  0.89231092  0.53450434  0.33826534    -0.12360
F1462       F  0.92177755  0.56630373  0.29103494    -0.14720
F1463       F  0.89295229  0.59856439  0.44480965    -0.14720
F1464       F  0.92328512  0.63034394  0.39734849    -0.12360
C1465       C  0.52080792  0.73058367  0.26885929     0.25650
C1466       C  0.50024361  0.71665405  0.25045447    -0.22460
C1467       C  0.97965379  0.73062196  0.23229876     0.20560
C1468       C  0.97969358  0.75786136  0.23228263     0.25590
C1469       C  0.00032621  0.77182318  0.25042795    -0.22400
C1470       C  0.52084815  0.75788258  0.26884604     0.20490
F1471       F  0.54072123  0.77065074  0.28764397    -0.12360
F1472       F  0.54063649  0.71780790  0.28769792    -0.14720
F1473       F  0.95991237  0.77053980  0.21314980    -0.14720
F1474       F  0.95983170  0.71793955  0.21321304    -0.12360
C1475       C  0.52288151  0.98027002  0.27982350     0.25650
C1476       C  0.00042227  0.96704000  0.26693830    -0.22460
C1477       C  0.97823809  0.98069289  0.25415805     0.20560
C1478       C  0.97888287  0.50765687  0.25240632     0.25590
C1479       C  0.00171246  0.52090149  0.26348383    -0.22400
C1480       C  0.52351453  0.50734946  0.27815944     0.20490
F1481       F  0.54569575  0.52024250  0.28862517    -0.12360
F1482       F  0.54452867  0.96692804  0.29152648    -0.14720
F1483       F  0.95736915  0.52089167  0.23978779    -0.14720
F1484       F  0.95622145  0.96781163  0.24278673    -0.12360
Zn1485     Zn  0.00150424  0.59992592  0.80084145     1.49720
Zn1486     Zn  0.99916012  0.59411219  0.70242535     1.49360
Zn1487     Zn  0.96734136  0.63776648  0.74779177     1.49110
Zn1488     Zn  0.53260654  0.63735572  0.74594528     1.49480
O1489       O  0.49998286  0.61773509  0.74846265    -1.82070
O1490       O  0.00647833  0.56259232  0.79047553    -0.72700
O1491       O  0.96657499  0.59686693  0.66894715    -0.72520
O1492       O  0.94266352  0.62716022  0.79426831    -0.72040
O1493       O  0.99829031  0.55841594  0.72410768    -0.72720
O1494       O  0.96752095  0.60011546  0.83001287    -0.72320
O1495       O  0.94399462  0.62849329  0.69909054    -0.72900
O1496       O  0.52223420  0.67565940  0.74918002    -0.72290
O1497       O  0.53157753  0.59608664  0.66804462    -0.73050
O1498       O  0.97832756  0.67576453  0.74905085    -0.72440
O1499       O  0.55453530  0.62831640  0.69584402    -0.72900
O1500       O  0.55772543  0.62536116  0.79065016    -0.72810
O1501       O  0.53137546  0.60894616  0.83751093    -0.72600
C1502       C  0.00253069  0.54880732  0.75905353     0.79190
C1503       C  0.94596079  0.61050625  0.67237823     0.79680
C1504       C  0.94555106  0.61053093  0.82269729     0.78640
C1505       C  0.50029589  0.68776572  0.74967421     0.79010
C1506       C  0.55211296  0.60999694  0.66980876     0.80150
C1507       C  0.55418277  0.61441149  0.82498403     0.79200
Zn1508     Zn  0.96772807  0.85081147  0.74537092     1.49720
Zn1509     Zn  0.00125535  0.88702836  0.80213876     1.49360
Zn1510     Zn  0.53305506  0.85092613  0.74438885     1.49110
Zn1511     Zn  0.99987616  0.89480938  0.70367937     1.49480
O1512       O  0.00038673  0.87047690  0.74820589    -1.82070
O1513       O  0.94250026  0.86278437  0.79015814    -0.72700
O1514       O  0.53287896  0.87981630  0.83611718    -0.72520
O1515       O  0.52255385  0.81267727  0.74864465    -0.72040
O1516       O  0.96817023  0.88361084  0.83395404    -0.72720
O1517       O  0.97862085  0.81282002  0.74827467    -0.72320
O1518       O  0.55866237  0.86383284  0.78788342    -0.72900
O1519       O  0.53199670  0.89315440  0.66935284    -0.72290
O1520       O  0.00332081  0.92501456  0.79369094    -0.73050
O1521       O  0.55425276  0.85924531  0.69294595    -0.72440
O1522       O  0.99858035  0.92996377  0.72664126    -0.72900
O1523       O  0.96839440  0.89184639  0.66843108    -0.72810
O1524       O  0.94575875  0.85907568  0.69467518    -0.72600
C1525       C  0.94568194  0.87620493  0.82249221     0.79190
C1526       C  0.55552639  0.87500861  0.82223152     0.79680
C1527       C  0.00054011  0.80070667  0.74928440     0.78640
C1528       C  0.55188359  0.87834682  0.66840819     0.79010
C1529       C  0.00087351  0.93914771  0.76233274     0.80150
C1530       C  0.94828846  0.87737865  0.66875206     0.79200
Zn1531     Zn  0.59782200  0.99524356  0.95557575     1.49720
Zn1532     Zn  0.64306353  0.52713121  0.49566786     1.49360
Zn1533     Zn  0.60803774  0.99470053  0.55404844     1.49110
Zn1534     Zn  0.64268312  0.96224526  0.49463043     1.49480
O1535       O  0.62315539  0.99479354  0.49907357    -1.82070
O1536       O  0.59962891  0.52777971  0.92205206    -0.72700
O1537       O  0.63111731  0.55232284  0.54034679    -0.72520
O1538       O  0.56992950  0.99609890  0.54747262    -0.72040
O1539       O  0.63442660  0.54896435  0.94530218    -0.72720
O1540       O  0.56283638  0.99511167  0.98043227    -0.72320
O1541       O  0.61520025  0.52631716  0.58809818    -0.72900
O1542       O  0.63058943  0.93639211  0.53811899    -0.72290
O1543       O  0.68127261  0.51631826  0.49893815    -0.73050
O1544       O  0.61270037  0.96162991  0.58546523    -0.72400
O1545       O  0.68092266  0.97258885  0.49831899    -0.72900
O1546       O  0.63396892  0.94138636  0.94320880    -0.72810
O1547       O  0.59989172  0.96358037  0.91975679    -0.72600
C1548       C  0.61481368  0.54737037  0.92149936     0.79190
C1549       C  0.62030372  0.54899945  0.57490132     0.79680
C1550       C  0.55480200  0.99579357  0.51698841     0.78640
C1551       C  0.61869937  0.93920840  0.57193839     0.79010
C1552       C  0.69324638  0.99433400  0.49960908     0.80150
C1553       C  0.61483490  0.94377688  0.91864082     0.79200
Zn1554     Zn  0.85720961  0.52669053  0.49761903     1.49720
Zn1555     Zn  0.90248431  0.99419335  0.95849708     1.49360
Zn1556     Zn  0.89201474  0.99387725  0.55631044     1.49110
Zn1557     Zn  0.85729919  0.96160629  0.49617455     1.49480
O1558       O  0.87690846  0.99410847  0.50141656    -1.82070
O1559       O  0.86604921  0.54809067  0.94663316    -0.72700
O1560       O  0.93733392  0.99491063  0.98316168    -0.72520
O1561       O  0.88450393  0.52551305  0.59026920    -0.72040
O1562       O  0.89998684  0.52561653  0.92332341    -0.72720
O1563       O  0.86852143  0.55182208  0.54294471    -0.72320
O1564       O  0.93028168  0.99537297  0.55021761    -0.72900
O1565       O  0.86923703  0.93562633  0.53949096    -0.72290
O1566       O  0.90097188  0.96243434  0.92341663    -0.73050
O1567       O  0.88715945  0.96058172  0.58718992    -0.72440
O1568       O  0.86597453  0.94078554  0.94442528    -0.72900
O1569       O  0.81910644  0.97215423  0.49959735    -0.72810
O1570       O  0.81896702  0.51589170  0.50019578    -0.72600
C1571       C  0.88507106  0.54538534  0.92186417     0.79190
C1572       C  0.94538747  0.99546175  0.51966179     0.79680
C1573       C  0.87905146  0.54828945  0.57768146     0.78640
C1574       C  0.88112653  0.93824599  0.57332899     0.79010
C1575       C  0.88566808  0.94301634  0.92088454     0.80150
C1576       C  0.80688528  0.99399037  0.50068771     0.79200
C1577       C  0.76374399  0.51666875  0.51187046     0.25650
C1578       C  0.77780481  0.99386475  0.50196451    -0.22460
C1579       C  0.76370513  0.97102964  0.99248100     0.20560
C1580       C  0.73639330  0.97111508  0.99220577     0.25590
C1581       C  0.72231464  0.99405188  0.50140542    -0.22400
C1582       C  0.73640907  0.51675044  0.51159313     0.20490
F1583       F  0.72382984  0.53917242  0.52169288    -0.12360
F1584       F  0.77635266  0.53900555  0.52220613    -0.14720
F1585       F  0.72383545  0.94875516  0.98183140    -0.14720
F1586       F  0.77623061  0.94858469  0.98233954    -0.12360
C1587       C  0.98667276  0.97208168  0.52734435     0.25650
C1588       C  0.97312880  0.99576754  0.52627280    -0.22460
C1589       C  0.98649212  0.51954392  0.02602837     0.20560
C1590       C  0.51362244  0.51961943  0.02495765     0.25590
C1591       C  0.52710005  0.99590977  0.52404804    -0.22400
C1592       C  0.51377343  0.97215371  0.52623072     0.20490
F1593       F  0.52698819  0.94919003  0.52519745    -0.12360
F1594       F  0.97359789  0.94904368  0.52717803    -0.14720
F1595       F  0.52669178  0.54261448  0.02277973    -0.14720
F1596       F  0.97321862  0.54246093  0.02467115    -0.12360
C1597       C  0.58471672  0.90522921  0.57537364     0.25650
C1598       C  0.60722618  0.91641958  0.59270052    -0.22460
C1599       C  0.61378646  0.91027661  0.63308801     0.20560
C1600       C  0.59715366  0.89451680  0.65659024     0.25590
C1601       C  0.57327958  0.88560356  0.64039253    -0.22400
C1602       C  0.56767839  0.89032279  0.59919931     0.20490
F1603       F  0.54455741  0.88243981  0.58307354    -0.12360
F1604       F  0.57755692  0.91142846  0.53673430    -0.14720
F1605       F  0.60283128  0.89060892  0.69652375    -0.14720
F1606       F  0.63518684  0.92114980  0.65062309    -0.12360
C1607       C  0.60292853  0.92751206  0.84942950     0.25650
C1608       C  0.60767833  0.92228185  0.89071770    -0.22460
C1609       C  0.59937301  0.89829960  0.90708608     0.20560
C1610       C  0.58412437  0.88113441  0.88363916     0.25590
C1611       C  0.57795134  0.88724372  0.84310236    -0.22400
C1612       C  0.58860312  0.90991570  0.82562051     0.20490
F1613       F  0.58243110  0.91659172  0.78676293    -0.12360
F1614       F  0.61035868  0.95064546  0.83307138    -0.14720
F1615       F  0.57380138  0.85957178  0.90131113    -0.14720
F1616       F  0.60341423  0.89291274  0.94708069    -0.12360
C1617       C  0.88601181  0.90864768  0.63372114     0.25650
C1618       C  0.89268310  0.91531656  0.59358271    -0.22460
C1619       C  0.91534327  0.90449314  0.57610584     0.20560
C1620       C  0.93244994  0.88949858  0.59965030     0.25590
C1621       C  0.92679644  0.88434886  0.64072478    -0.22400
C1622       C  0.90272982  0.89280215  0.65693974     0.20490
F1623       F  0.89694886  0.88845698  0.69673221    -0.12360
F1624       F  0.86441801  0.91911232  0.65135465    -0.14720
F1625       F  0.95571192  0.88203441  0.58345344    -0.14720
F1626       F  0.92257544  0.91117135  0.53768147    -0.12360
C1627       C  0.91379567  0.91187538  0.82724772     0.25650
C1628       C  0.92303265  0.88815792  0.84311468    -0.22460
C1629       C  0.91518672  0.88051940  0.88230724     0.20560
C1630       C  0.89969826  0.89725997  0.90628168     0.25590
C1631       C  0.89275542  0.92215708  0.89174310    -0.22400
C1632       C  0.89910754  0.92886643  0.85150610     0.20490
F1633       F  0.89304863  0.95288178  0.83693884    -0.12360
F1634       F  0.92163935  0.91995953  0.78978722    -0.14720
F1635       F  0.89410797  0.89043549  0.94527077    -0.14720
F1636       F  0.92416205  0.85788192  0.89842441    -0.12360
C1637       C  0.57236647  0.60143520  0.60174088     0.25650
C1638       C  0.57455616  0.60209462  0.64431578    -0.22460
C1639       C  0.59563796  0.58916437  0.66299256     0.20560
C1640       C  0.61260990  0.57356503  0.63984590     0.25590
C1641       C  0.60935060  0.57147150  0.59749474    -0.22400
C1642       C  0.58993622  0.58663776  0.57842031     0.20490
F1643       F  0.58583018  0.58447699  0.53770611    -0.12360
F1644       F  0.55198840  0.61342392  0.58308008    -0.14720
F1645       F  0.63088236  0.55888822  0.65910104    -0.14720
F1646       F  0.59796101  0.58920451  0.70418740    -0.12360
C1647       C  0.59178378  0.58405381  0.82929946     0.25650
C1648       C  0.57659658  0.60369140  0.84789083    -0.22460
C1649       C  0.57866697  0.60750977  0.89012754     0.20560
C1650       C  0.59427916  0.59087095  0.91368875     0.25590
C1651       C  0.60724956  0.56959743  0.89556029    -0.22400
C1652       C  0.60660858  0.56684367  0.85305444     0.20490
F1653       F  0.61852614  0.54619003  0.83494777    -0.12360
F1654       F  0.58961299  0.57940223  0.78870775    -0.14720
F1655       F  0.59435240  0.59375540  0.95479449    -0.14720
F1656       F  0.56398098  0.62603076  0.90889629    -0.12360
C1657       C  0.92241291  0.60449807  0.60604784     0.25650
C1658       C  0.92290497  0.60218695  0.64862959    -0.22460
C1659       C  0.90458978  0.58584986  0.66778865     0.20560
C1660       C  0.88795255  0.56999850  0.64460495     0.25590
C1661       C  0.88882510  0.57073884  0.60182302    -0.22400
C1662       C  0.90511386  0.58927493  0.58280085     0.20490
F1663       F  0.90668790  0.59032414  0.54153137    -0.12360
F1664       F  0.94011037  0.61988340  0.58685672    -0.14720
F1665       F  0.87258013  0.55231955  0.66386537    -0.14720
F1666       F  0.90494128  0.58297706  0.70890814    -0.12360
C1667       C  0.91356632  0.57508739  0.82797888     0.25650
C1668       C  0.92270545  0.59902935  0.84324125    -0.22460
C1669       C  0.91439470  0.60745118  0.88186067     0.20560
C1670       C  0.89874694  0.59110589  0.90613477     0.25590
C1671       C  0.89192125  0.56597040  0.89227991    -0.22400
C1672       C  0.89846732  0.55865342  0.85232148     0.20490
F1673       F  0.89232609  0.53449259  0.83826552    -0.12360
F1674       F  0.92178503  0.56630393  0.79104268    -0.14720
F1675       F  0.89296373  0.59853668  0.94483335    -0.14720
F1676       F  0.92329164  0.63032665  0.89738207    -0.12360
C1677       C  0.52080394  0.73058610  0.76886750     0.25650
C1678       C  0.50024110  0.71665400  0.75046370    -0.22460
C1679       C  0.97965265  0.73061938  0.73229941     0.20560
C1680       C  0.97969245  0.75785884  0.73227373     0.25590
C1681       C  0.00032363  0.77182328  0.75041826    -0.22400
C1682       C  0.52084407  0.75788504  0.76884526     0.20490
F1683       F  0.54071560  0.77065560  0.78764319    -0.12360
F1684       F  0.54063114  0.71781277  0.78771367    -0.14720
F1685       F  0.95991271  0.77053451  0.71313279    -0.14720
F1686       F  0.95983220  0.71793417  0.71321408    -0.12360
C1687       C  0.52286310  0.98026555  0.77981806     0.25650
C1688       C  0.00039941  0.96703769  0.76694710    -0.22460
C1689       C  0.97821424  0.98069222  0.75417596     0.20560
C1690       C  0.97886183  0.50765635  0.75242097     0.25590
C1691       C  0.00169534  0.52089870  0.76348605    -0.22400
C1692       C  0.52349888  0.50734463  0.77815144     0.20490
F1693       F  0.54568394  0.52023535  0.78860442    -0.12360
F1694       F  0.54451155  0.96692140  0.79150934    -0.14720
F1695       F  0.95734748  0.52089335  0.73981081    -0.14720
F1696       F  0.95619495  0.96781236  0.74281349    -0.12360
loop_ 
_geom_bond_atom_site_label_1 
_geom_bond_atom_site_label_2 
_geom_bond_distance 
_geom_bond_site_symmetry_2 
_ccdc_geom_bond_type 
Zn1           O6   1.961       .  S
Zn1          O10   1.985       .  S
Zn1         O865   2.000       .  S
Zn1         O853   1.950       .  S
Zn2           O7   2.003       .  S
Zn2           O9   1.967       .  S
Zn2         O861   2.009       .  S
Zn2         O853   1.935       .  S
Zn3           O8   2.054       .  S
Zn3          O11   2.051       .  S
Zn3          O14   2.029       .  S
Zn3         O853   1.961       .  S
Zn4          O12   2.038       .  S
Zn4          O15   2.042       .  S
Zn4          O16   2.047       .  S
Zn4           O5   1.952   1_455  S
O5         Zn849   1.950   1_655  S
O5         Zn850   1.935       .  S
O5         Zn851   1.961       .  S
O6           C18   1.265       .  A
O7           C19   1.271       .  A
O8           C20   1.274       .  A
O9           C18   1.268       .  A
O10          C20   1.268       .  A
O11          C19   1.275       .  A
O12          C21   1.283       .  A
O13        Zn850   2.009   1_455  S
O13          C22   1.272       .  A
O14         C869   1.282       .  A
O15          C22   1.275       .  A
O16          C23   1.273       .  A
O17        Zn849   2.000       .  S
O17          C23   1.269       .  A
C18         C207   1.440       .  S
C19         C174   1.477       .  S
C20         C184   1.474       .  S
C21         O862   1.282   1_455  A
C21         C194   1.482       .  S
C22         C154   1.477       .  S
C23         C164   1.479       .  S
Zn24         O29   2.049       .  S
Zn24         O33   2.029       .  S
Zn24         O40   2.053       .  S
Zn24         O28   1.955       .  S
Zn25         O32   1.997       .  S
Zn25         O36   1.972       .  S
Zn25        O878   2.001       .  S
Zn25         O28   1.961       .  S
Zn26         O31   2.040       .  S
Zn26         O34   2.047       .  S
Zn26         O37   2.052       .  S
Zn26        O876   1.953       .  S
Zn27         O38   1.954       .  S
Zn27         O39   1.990       .  S
Zn27        O883   1.994       .  S
Zn27         O28   1.924       .  S
O28        Zn874   1.953       .  S
O29          C41   1.274       .  A
O30        Zn873   2.001       .  S
O30          C42   1.269       .  A
O31         C891   1.284       .  A
O32          C41   1.269       .  A
O33          C43   1.283       .  A
O34          C42   1.273       .  A
O35        Zn875   1.994   1_455  S
O35          C44   1.270       .  A
O36          C45   1.266       .  A
O37          C44   1.275       .  A
O38          C45   1.267       .  A
O39          C46   1.269       .  A
O40          C46   1.275       .  A
C41         C144   1.475       .  S
C42         C127   1.477       .  S
C43         O879   1.284       .  A
C43         C197   1.482       .  S
C44         C117   1.478       .  S
C45         C204   1.438       .  S
C46         C137   1.479       .  S
Zn47         O56   1.967       .  S
Zn47         O63   2.005       .  S
Zn47        O476   2.003       .  S
Zn47        O263   1.930       .  S
Zn48         O53   2.045   1_556  S
Zn48         O59   2.036       .  S
Zn48        O267   2.047       .  S
Zn48        O475   1.951   1_545  S
Zn49         O54   1.964       .  S
Zn49         O60   2.001       .  S
Zn49        O481   2.001       .  S
Zn49         O51   1.962   1_554  S
Zn50         O58   2.046   1_556  S
Zn50         O61   2.032       .  S
Zn50        O274   2.045       .  S
Zn50         O51   1.951       .  S
O51        Zn259   1.930       .  S
O51        Zn472   1.951       .  S
O52        Zn471   2.003   1_545  S
O52          C64   1.271       .  A
O53          C65   1.273       .  A
O54          C66   1.265       .  A
O55        Zn260   2.047       .  S
O55          C64   1.275       .  A
O56         C278   1.268       .  A
O57        Zn473   2.001   1_545  S
O57          C65   1.270       .  A
O58          C67   1.273       .  A
O59         C492   1.283   1_545  A
O60          C67   1.269       .  A
O61          C68   1.282       .  A
O62        Zn262   2.045       .  S
O62          C69   1.275       .  A
O63          C69   1.272       .  A
C64         C167   1.476       .  S
C65         C157   1.479       .  S
C66         O268   1.268   1_554  A
C66         C107   1.437       .  S
C67         C114   1.476       .  S
C68         O483   1.283       .  A
C68          C97   1.489   1_556  S
C69         C124   1.478       .  S
Zn70         O79   2.050   1_556  S
Zn70         O86   2.036   1_556  S
Zn70        O287   2.054       .  S
Zn70        O498   1.956   1_546  S
Zn71         O76   1.960       .  S
Zn71         O82   1.994       .  S
Zn71        O502   1.989       .  S
Zn71        O286   1.922       .  S
Zn72         O80   1.970       .  S
Zn72         O83   2.003       .  S
Zn72        O501   2.003       .  S
Zn72         O74   1.961       .  S
Zn73         O81   2.044   1_556  S
Zn73         O85   2.031       .  S
Zn73        O296   2.051       .  S
Zn73         O74   1.954   1_556  S
O74        Zn494   1.956   1_554  S
O74        Zn283   1.922   1_554  S
O75        Zn282   2.054       .  S
O75          C87   1.275       .  A
O76         C300   1.267       .  A
O77        Zn496   2.003   1_545  S
O77          C89   1.271       .  A
O78        Zn495   1.989   1_545  S
O78          C87   1.270       .  A
O79          C89   1.274       .  A
O80          C88   1.266       .  A
O81          C90   1.273       .  A
O82          C91   1.270       .  A
O83          C90   1.270       .  A
O84        Zn285   2.051       .  S
O84          C91   1.275       .  A
O85          C92   1.283   1_556  A
O86         C516   1.283   1_545  A
C87         C187   1.478       .  S
C88         O288   1.267   1_554  A
C88         C104   1.437       .  S
C89         C177   1.483       .  S
C90         C134   1.476       .  S
C91         C147   1.478       .  S
C92         O510   1.283       .  A
C92          C94   1.489       .  S
C93          C98   1.399       .  A
C93         C518   1.410   1_545  A
C93         F100   1.358       .  S
C94         C517   1.410       .  A
C94         C307   1.410   1_554  A
C95          C96   1.398       .  A
C95         C306   1.410       .  A
C95         F102   1.358       .  S
C96         C309   1.410       .  A
C96         F101   1.358       .  S
C97         C308   1.410   1_554  A
C97         C522   1.410       .  A
C98         C521   1.410   1_545  A
C98          F99   1.358       .  S
C103        C104   1.399       .  A
C103        C956   1.388       .  A
C103        F110   1.358       .  S
C104        C741   1.399       .  A
C105        C740   1.399   1_545  A
C105        C954   1.389       .  A
C105        F112   1.358       .  S
C106        C953   1.389   1_455  A
C106        C743   1.399   1_545  A
C106        F111   1.358       .  S
C107        C108   1.399       .  A
C107        C742   1.399       .  A
C108        C951   1.388   1_455  A
C108        F109   1.358       .  S
C113        C114   1.407       .  A
C113        C118   1.400       .  A
C113        F120   1.358       .  S
C114        C115   1.404       .  A
C115        C116   1.406       .  A
C115        F122   1.357       .  S
C116        C117   1.409       .  A
C116        F121   1.358       .  S
C117        C118   1.403       .  A
C118        F119   1.358       .  S
C123        C124   1.403       .  A
C123        C128   1.400       .  A
C123        F130   1.358       .  S
C124        C125   1.409       .  A
C125        C126   1.405       .  A
C125        F132   1.358       .  S
C126        C127   1.403       .  A
C126        F131   1.357       .  S
C127        C128   1.408       .  A
C128        F129   1.358       .  S
C133        C134   1.404       .  A
C133        C138   1.406       .  A
C133        F140   1.357       .  S
C134        C135   1.407       .  A
C135        C136   1.399       .  A
C135        F142   1.359       .  S
C136        C137   1.404       .  A
C136        F141   1.358       .  S
C137        C138   1.409       .  A
C138        F139   1.358       .  S
C143        C144   1.406       .  A
C143        C148   1.398       .  A
C143        F150   1.359       .  S
C144        C145   1.404       .  A
C145        C146   1.407       .  A
C145        F152   1.357       .  S
C146        C147   1.410       .  A
C146        F151   1.358       .  S
C147        C148   1.403       .  A
C148        F149   1.358       .  S
C153        C154   1.402       .  A
C153        C158   1.402       .  A
C153        F160   1.358       .  S
C154        C155   1.408       .  A
C155        C156   1.403       .  A
C155        F162   1.357       .  S
C156        C157   1.404       .  A
C156        F161   1.358       .  S
C157        C158   1.410       .  A
C158        F159   1.357       .  S
C163        C164   1.410       .  A
C163        C168   1.402       .  A
C163        F170   1.357       .  S
C164        C165   1.403       .  A
C165        C166   1.403       .  A
C165        F172   1.358       .  S
C166        C167   1.408       .  A
C166        F171   1.357       .  S
C167        C168   1.402       .  A
C168        F169   1.358       .  S
C173        C174   1.403       .  A
C173        C178   1.405       .  A
C173        F180   1.357       .  S
C174        C175   1.407       .  A
C175        C176   1.401       .  A
C175        F182   1.358       .  S
C176        C177   1.405       .  A
C176        F181   1.358       .  S
C177        C178   1.411       .  A
C178        F179   1.358       .  S
C183        C184   1.406       .  A
C183        C188   1.396       .  A
C183        F190   1.358       .  S
C184        C185   1.404       .  A
C185        C186   1.408       .  A
C185        F192   1.357       .  S
C186        C187   1.410       .  A
C186        F191   1.357       .  S
C187        C188   1.403       .  A
C188        F189   1.358       .  S
C193        C194   1.408       .  A
C193        C198   1.400       .  A
C193        F200   1.358       .  S
C194       C1043   1.408   1_455  A
C195        C196   1.397       .  A
C195       C1042   1.408       .  A
C195        F202   1.358       .  S
C196        C197   1.408       .  A
C196        F201   1.358       .  S
C197       C1046   1.408       .  A
C198       C1045   1.408       .  A
C198        F199   1.358       .  S
C203       C1052   1.400       .  A
C203        C632   1.391       .  A
C203        F210   1.358       .  S
C204        C205   1.399       .  A
C204       C1051   1.400       .  A
C205        C630   1.385       .  A
C205        F212   1.359       .  S
C206        C207   1.400       .  A
C206        C629   1.385   1_545  A
C206        F211   1.359       .  S
C207       C1056   1.401       .  A
C208        C627   1.391   1_545  A
C208       C1055   1.401       .  A
C208        F209   1.358       .  S
Zn213       O218   1.961       .  S
Zn213       O222   1.985       .  S
Zn213      O1077   2.000       .  S
Zn213      O1065   1.950       .  S
Zn214       O219   2.003       .  S
Zn214       O221   1.967       .  S
Zn214      O1073   2.009       .  S
Zn214      O1065   1.935       .  S
Zn215       O220   2.054       .  S
Zn215       O223   2.051       .  S
Zn215       O226   2.029       .  S
Zn215      O1065   1.961       .  S
Zn216       O224   2.038       .  S
Zn216       O227   2.042       .  S
Zn216       O228   2.047       .  S
Zn216       O217   1.952   1_455  S
O217      Zn1061   1.950   1_655  S
O217      Zn1062   1.935       .  S
O217      Zn1063   1.961       .  S
O218        C230   1.265       .  A
O219        C231   1.271       .  A
O220        C232   1.274       .  A
O221        C230   1.268       .  A
O222        C232   1.268       .  A
O223        C231   1.275       .  A
O224        C233   1.283       .  A
O225      Zn1062   2.009   1_455  S
O225        C234   1.272       .  A
O226       C1081   1.282       .  A
O227        C234   1.275       .  A
O228        C235   1.273       .  A
O229      Zn1061   2.000       .  S
O229        C235   1.269       .  A
C230        C419   1.440       .  S
C231        C386   1.477       .  S
C232        C396   1.474       .  S
C233       O1074   1.282   1_455  A
C233        C406   1.482       .  S
C234        C366   1.477       .  S
C235        C376   1.479       .  S
Zn236       O241   2.049       .  S
Zn236       O245   2.029       .  S
Zn236       O252   2.053       .  S
Zn236       O240   1.955       .  S
Zn237      O1090   2.001       .  S
Zn237       O244   1.997       .  S
Zn237       O248   1.972       .  S
Zn237       O240   1.962       .  S
Zn238       O243   2.040       .  S
Zn238       O246   2.047       .  S
Zn238       O249   2.052       .  S
Zn238      O1088   1.953       .  S
Zn239      O1095   1.994       .  S
Zn239       O250   1.954       .  S
Zn239       O251   1.990       .  S
Zn239       O240   1.924       .  S
O240      Zn1086   1.953       .  S
O241        C253   1.274       .  A
O242      Zn1085   2.001       .  S
O242        C254   1.269       .  A
O243       C1103   1.284       .  A
O244        C253   1.269       .  A
O245        C255   1.283       .  A
O246        C254   1.273       .  A
O247      Zn1087   1.994   1_455  S
O247        C256   1.270       .  A
O248        C257   1.266       .  A
O249        C256   1.275       .  A
O250        C257   1.267       .  A
O251        C258   1.269       .  A
O252        C258   1.275       .  A
C253        C356   1.475       .  S
C254        C339   1.477       .  S
C255       O1091   1.284       .  A
C255        C409   1.482       .  S
C256        C329   1.478       .  S
C257        C416   1.438       .  S
C258        C349   1.479       .  S
Zn259       O688   2.003       .  S
Zn259       O268   1.967       .  S
Zn259       O275   2.005       .  S
Zn260       O265   2.045       .  S
Zn260       O271   2.036       .  S
Zn260       O687   1.951   1_545  S
Zn261       O266   1.964       .  S
Zn261       O693   2.001       .  S
Zn261       O272   2.001       .  S
Zn261       O263   1.962       .  S
Zn262       O270   2.046       .  S
Zn262       O273   2.032       .  S
Zn262       O263   1.951       .  S
O263       Zn684   1.951       .  S
O264       Zn683   2.003   1_545  S
O264        C276   1.271       .  A
O265        C277   1.273       .  A
O266        C278   1.265       .  A
O267        C276   1.275       .  A
O269       Zn685   2.001   1_545  S
O269        C277   1.270       .  A
O270        C279   1.273       .  A
O271        C704   1.283   1_545  A
O272        C279   1.269       .  A
O273        C280   1.282       .  A
O274        C281   1.275       .  A
O275        C281   1.272       .  A
C276        C379   1.476       .  S
C277        C369   1.479       .  S
C278        C319   1.437       .  S
C279        C326   1.476       .  S
C280        O695   1.283       .  A
C280        C309   1.489       .  S
C281        C336   1.478       .  S
Zn282       O291   2.050       .  S
Zn282       O298   2.037       .  S
Zn282       O710   1.956   1_545  S
Zn283       O288   1.960       .  S
Zn283       O714   1.989       .  S
Zn283       O294   1.994       .  S
Zn284       O713   2.003       .  S
Zn284       O292   1.970       .  S
Zn284       O295   2.003       .  S
Zn284       O286   1.961       .  S
Zn285       O293   2.044       .  S
Zn285       O297   2.031       .  S
Zn285       O286   1.954       .  S
O286       Zn706   1.956       .  S
O287        C299   1.275       .  A
O289       Zn708   2.003   1_545  S
O289        C301   1.271       .  A
O290       Zn707   1.989   1_545  S
O290        C299   1.270       .  A
O291        C301   1.274       .  A
O292        C300   1.266       .  A
O293        C302   1.273       .  A
O294        C303   1.270       .  A
O295        C302   1.270       .  A
O296        C303   1.275       .  A
O297        C304   1.283       .  A
O298        C728   1.283   1_545  A
C299        C399   1.478       .  S
C300        C316   1.437       .  S
C301        C389   1.483       .  S
C302        C346   1.476       .  S
C303        C359   1.478       .  S
C304        O722   1.283       .  A
C304        C306   1.489       .  S
C305        C730   1.410   1_545  A
C305        C310   1.399       .  A
C305        F312   1.358       .  S
C306        C729   1.410       .  A
C307        C308   1.398       .  A
C307        F314   1.358       .  S
C308        F313   1.358       .  S
C309        C734   1.410       .  A
C310        C733   1.410   1_545  A
C310        F311   1.358       .  S
C315        C316   1.399       .  A
C315       C1168   1.388       .  A
C315        F322   1.358       .  S
C316        C529   1.399       .  A
C317        C528   1.399   1_545  A
C317       C1166   1.389       .  A
C317        F324   1.358       .  S
C318       C1165   1.389   1_455  A
C318        C531   1.399   1_545  A
C318        F323   1.358       .  S
C319        C530   1.399       .  A
C319        C320   1.399       .  A
C320       C1163   1.388   1_455  A
C320        F321   1.358       .  S
C325        C326   1.407       .  A
C325        C330   1.400       .  A
C325        F332   1.358       .  S
C326        C327   1.404       .  A
C327        C328   1.406       .  A
C327        F334   1.357       .  S
C328        C329   1.409       .  A
C328        F333   1.358       .  S
C329        C330   1.403       .  A
C330        F331   1.358       .  S
C335        C336   1.403       .  A
C335        C340   1.400       .  A
C335        F342   1.358       .  S
C336        C337   1.409       .  A
C337        C338   1.405       .  A
C337        F344   1.358       .  S
C338        C339   1.403       .  A
C338        F343   1.357       .  S
C339        C340   1.408       .  A
C340        F341   1.358       .  S
C345        C346   1.404       .  A
C345        C350   1.406       .  A
C345        F352   1.357       .  S
C346        C347   1.407       .  A
C347        C348   1.399       .  A
C347        F354   1.359       .  S
C348        C349   1.404       .  A
C348        F353   1.358       .  S
C349        C350   1.409       .  A
C350        F351   1.358       .  S
C355        C356   1.406       .  A
C355        C360   1.398       .  A
C355        F362   1.359       .  S
C356        C357   1.404       .  A
C357        C358   1.407       .  A
C357        F364   1.357       .  S
C358        C359   1.410       .  A
C358        F363   1.358       .  S
C359        C360   1.403       .  A
C360        F361   1.358       .  S
C365        C366   1.402       .  A
C365        C370   1.402       .  A
C365        F372   1.358       .  S
C366        C367   1.408       .  A
C367        C368   1.403       .  A
C367        F374   1.357       .  S
C368        C369   1.404       .  A
C368        F373   1.358       .  S
C369        C370   1.410       .  A
C370        F371   1.357       .  S
C375        C376   1.410       .  A
C375        C380   1.402       .  A
C375        F382   1.357       .  S
C376        C377   1.403       .  A
C377        C378   1.403       .  A
C377        F384   1.358       .  S
C378        C379   1.408       .  A
C378        F383   1.357       .  S
C379        C380   1.402       .  A
C380        F381   1.358       .  S
C385        C386   1.403       .  A
C385        C390   1.405       .  A
C385        F392   1.357       .  S
C386        C387   1.407       .  A
C387        C388   1.401       .  A
C387        F394   1.358       .  S
C388        C389   1.405       .  A
C388        F393   1.358       .  S
C389        C390   1.411       .  A
C390        F391   1.358       .  S
C395        C396   1.406       .  A
C395        C400   1.396       .  A
C395        F402   1.358       .  S
C396        C397   1.404       .  A
C397        C398   1.408       .  A
C397        F404   1.357       .  S
C398        C399   1.410       .  A
C398        F403   1.357       .  S
C399        C400   1.403       .  A
C400        F401   1.358       .  S
C405        C406   1.408       .  A
C405        C410   1.400       .  A
C405        F412   1.358       .  S
C406       C1255   1.408   1_455  A
C407       C1254   1.408       .  A
C407        C408   1.397       .  A
C407        F414   1.358       .  S
C408        C409   1.408       .  A
C408        F413   1.358       .  S
C409       C1258   1.408       .  A
C410       C1257   1.408       .  A
C410        F411   1.358       .  S
C415       C1264   1.400       .  A
C415        C844   1.391       .  A
C415        F422   1.358       .  S
C416       C1263   1.400       .  A
C416        C417   1.399       .  A
C417        C842   1.385       .  A
C417        F424   1.359       .  S
C418        C841   1.385   1_545  A
C418        C419   1.400       .  A
C418        F423   1.359       .  S
C419       C1268   1.401       .  A
C420        C839   1.391   1_545  A
C420       C1267   1.401       .  A
C420        F421   1.358       .  S
Zn425       O430   1.961       .  S
Zn425       O434   1.985       .  S
Zn425      O1289   2.000       .  S
Zn425      O1277   1.950       .  S
Zn426       O431   2.003       .  S
Zn426       O433   1.967       .  S
Zn426      O1285   2.009       .  S
Zn426      O1277   1.935       .  S
Zn427       O432   2.054       .  S
Zn427       O435   2.051       .  S
Zn427       O438   2.029       .  S
Zn427      O1277   1.961       .  S
Zn428       O436   2.038       .  S
Zn428       O439   2.042       .  S
Zn428       O440   2.047       .  S
Zn428       O429   1.952   1_455  S
O429      Zn1273   1.950   1_655  S
O429      Zn1274   1.935       .  S
O429      Zn1275   1.961       .  S
O430        C442   1.265       .  A
O431        C443   1.271       .  A
O432        C444   1.274       .  A
O433        C442   1.268       .  A
O434        C444   1.268       .  A
O435        C443   1.275       .  A
O436        C445   1.283       .  A
O437      Zn1274   2.009   1_455  S
O437        C446   1.272       .  A
O438       C1293   1.282       .  A
O439        C446   1.275       .  A
O440        C447   1.273       .  A
O441      Zn1273   2.000       .  S
O441        C447   1.269       .  A
C442        C631   1.440       .  S
C443        C598   1.477       .  S
C444        C608   1.474       .  S
C445       O1286   1.282   1_455  A
C445        C618   1.482       .  S
C446        C578   1.477       .  S
C447        C588   1.479       .  S
Zn448       O453   2.049       .  S
Zn448       O457   2.029       .  S
Zn448       O464   2.053       .  S
Zn448       O452   1.955       .  S
Zn449      O1302   2.001       .  S
Zn449       O456   1.997       .  S
Zn449       O460   1.972       .  S
Zn449       O452   1.961       .  S
Zn450       O455   2.040       .  S
Zn450       O458   2.047       .  S
Zn450       O461   2.052       .  S
Zn450      O1300   1.953       .  S
Zn451      O1307   1.994       .  S
Zn451       O462   1.954       .  S
Zn451       O463   1.990       .  S
Zn451       O452   1.924       .  S
O452      Zn1298   1.953       .  S
O453        C465   1.274       .  A
O454      Zn1297   2.001       .  S
O454        C466   1.269       .  A
O455       C1315   1.284       .  A
O456        C465   1.269       .  A
O457        C467   1.283       .  A
O458        C466   1.273       .  A
O459      Zn1299   1.994   1_455  S
O459        C468   1.270       .  A
O460        C469   1.266       .  A
O461        C468   1.275       .  A
O462        C469   1.267       .  A
O463        C470   1.269       .  A
O464        C470   1.275       .  A
C465        C568   1.475       .  S
C466        C551   1.477       .  S
C467       O1303   1.284       .  A
C467        C621   1.482       .  S
C468        C541   1.478       .  S
C469        C628   1.438       .  S
C470        C561   1.479       .  S
Zn471       O480   1.967       .  S
Zn471       O487   2.005       .  S
Zn471       O687   1.930       .  S
Zn472       O477   2.045   1_556  S
Zn472       O691   2.047       .  S
Zn472       O483   2.036       .  S
Zn473       O478   1.964       .  S
Zn473       O484   2.001       .  S
Zn473       O475   1.962   1_554  S
Zn474       O482   2.046   1_556  S
Zn474       O485   2.032       .  S
Zn474       O698   2.045       .  S
Zn474       O475   1.951       .  S
O475       Zn683   1.930       .  S
O476        C488   1.271       .  A
O477        C489   1.273       .  A
O478        C490   1.265       .  A
O479       Zn684   2.047       .  S
O479        C488   1.275       .  A
O480        C702   1.268       .  A
O481        C489   1.270       .  A
O482        C491   1.273       .  A
O484        C491   1.269       .  A
O485        C492   1.282       .  A
O486       Zn686   2.045       .  S
O486        C493   1.275       .  A
O487        C493   1.272       .  A
C488        C591   1.476       .  S
C489        C581   1.479       .  S
C490        O692   1.268   1_554  A
C490        C531   1.437       .  S
C491        C538   1.476       .  S
C492        C521   1.489   1_556  S
C493        C548   1.478       .  S
Zn494       O711   2.054       .  S
Zn494       O503   2.050   1_556  S
Zn494       O510   2.036   1_556  S
Zn495       O500   1.960       .  S
Zn495       O506   1.994       .  S
Zn495       O710   1.922       .  S
Zn496       O504   1.970       .  S
Zn496       O507   2.003       .  S
Zn496       O498   1.961       .  S
Zn497       O505   2.044   1_556  S
Zn497       O720   2.051       .  S
Zn497       O509   2.031       .  S
Zn497       O498   1.954   1_556  S
O498       Zn707   1.922   1_554  S
O499       Zn706   2.054       .  S
O499        C511   1.275       .  A
O500        C724   1.267       .  A
O501        C513   1.271       .  A
O502        C511   1.270       .  A
O503        C513   1.274       .  A
O504        C512   1.266       .  A
O505        C514   1.273       .  A
O506        C515   1.270       .  A
O507        C514   1.270       .  A
O508       Zn709   2.051       .  S
O508        C515   1.275       .  A
O509        C516   1.283   1_556  A
C511        C611   1.478       .  S
C512        O712   1.267   1_554  A
C512        C528   1.437       .  S
C513        C601   1.483       .  S
C514        C558   1.476       .  S
C515        C571   1.478       .  S
C516        C518   1.489       .  S
C517        C522   1.399       .  A
C517        F524   1.358       .  S
C518        C731   1.410   1_554  A
C519        C730   1.410       .  A
C519        C520   1.398       .  A
C519        F526   1.358       .  S
C520        C733   1.410       .  A
C520        F525   1.358       .  S
C521        C732   1.410   1_554  A
C522        F523   1.358       .  S
C527        C528   1.399       .  A
C527       C1380   1.388       .  A
C527        F534   1.358       .  S
C529       C1378   1.389       .  A
C529        F536   1.358       .  S
C530       C1377   1.389   1_455  A
C530        F535   1.358       .  S
C531        C532   1.399       .  A
C532       C1375   1.388   1_455  A
C532        F533   1.358       .  S
C537        C538   1.407       .  A
C537        C542   1.400       .  A
C537        F544   1.358       .  S
C538        C539   1.404       .  A
C539        C540   1.406       .  A
C539        F546   1.357       .  S
C540        C541   1.409       .  A
C540        F545   1.358       .  S
C541        C542   1.403       .  A
C542        F543   1.358       .  S
C547        C548   1.403       .  A
C547        C552   1.400       .  A
C547        F554   1.358       .  S
C548        C549   1.409       .  A
C549        C550   1.405       .  A
C549        F556   1.358       .  S
C550        C551   1.403       .  A
C550        F555   1.357       .  S
C551        C552   1.408       .  A
C552        F553   1.358       .  S
C557        C558   1.404       .  A
C557        C562   1.406       .  A
C557        F564   1.357       .  S
C558        C559   1.407       .  A
C559        C560   1.399       .  A
C559        F566   1.359       .  S
C560        C561   1.404       .  A
C560        F565   1.358       .  S
C561        C562   1.409       .  A
C562        F563   1.358       .  S
C567        C568   1.406       .  A
C567        C572   1.398       .  A
C567        F574   1.359       .  S
C568        C569   1.404       .  A
C569        C570   1.407       .  A
C569        F576   1.357       .  S
C570        C571   1.410       .  A
C570        F575   1.358       .  S
C571        C572   1.403       .  A
C572        F573   1.358       .  S
C577        C578   1.402       .  A
C577        C582   1.402       .  A
C577        F584   1.358       .  S
C578        C579   1.408       .  A
C579        C580   1.403       .  A
C579        F586   1.357       .  S
C580        C581   1.404       .  A
C580        F585   1.358       .  S
C581        C582   1.410       .  A
C582        F583   1.357       .  S
C587        C588   1.410       .  A
C587        C592   1.402       .  A
C587        F594   1.357       .  S
C588        C589   1.403       .  A
C589        C590   1.403       .  A
C589        F596   1.358       .  S
C590        C591   1.408       .  A
C590        F595   1.357       .  S
C591        C592   1.402       .  A
C592        F593   1.358       .  S
C597        C598   1.403       .  A
C597        C602   1.405       .  A
C597        F604   1.357       .  S
C598        C599   1.407       .  A
C599        C600   1.401       .  A
C599        F606   1.358       .  S
C600        C601   1.405       .  A
C600        F605   1.358       .  S
C601        C602   1.411       .  A
C602        F603   1.358       .  S
C607        C608   1.406       .  A
C607        C612   1.396       .  A
C607        F614   1.358       .  S
C608        C609   1.404       .  A
C609        C610   1.408       .  A
C609        F616   1.357       .  S
C610        C611   1.410       .  A
C610        F615   1.357       .  S
C611        C612   1.403       .  A
C612        F613   1.358       .  S
C617        C618   1.408       .  A
C617        C622   1.400       .  A
C617        F624   1.358       .  S
C618       C1467   1.408   1_455  A
C619       C1466   1.408       .  A
C619        C620   1.397       .  A
C619        F626   1.358       .  S
C620        C621   1.408       .  A
C620        F625   1.358       .  S
C621       C1470   1.408       .  A
C622       C1469   1.408       .  A
C622        F623   1.358       .  S
C627       C1476   1.400       .  A
C627        F634   1.358       .  S
C628       C1475   1.400       .  A
C628        C629   1.399       .  A
C629        F636   1.359       .  S
C630        C631   1.400       .  A
C630        F635   1.359       .  S
C631       C1480   1.401       .  A
C632       C1479   1.401       .  A
C632        F633   1.358       .  S
Zn637       O642   1.961       .  S
Zn637       O646   1.985       .  S
Zn637      O1501   2.000       .  S
Zn637      O1489   1.950       .  S
Zn638       O643   2.003       .  S
Zn638       O645   1.967       .  S
Zn638      O1497   2.009       .  S
Zn638      O1489   1.935       .  S
Zn639       O644   2.054       .  S
Zn639       O647   2.051       .  S
Zn639       O650   2.029       .  S
Zn639      O1489   1.961       .  S
Zn640       O648   2.038       .  S
Zn640       O651   2.042       .  S
Zn640       O652   2.047       .  S
Zn640       O641   1.952   1_455  S
O641      Zn1485   1.950   1_655  S
O641      Zn1486   1.935       .  S
O641      Zn1487   1.961       .  S
O642        C654   1.265       .  A
O643        C655   1.271       .  A
O644        C656   1.274       .  A
O645        C654   1.268       .  A
O646        C656   1.268       .  A
O647        C655   1.275       .  A
O648        C657   1.283       .  A
O649      Zn1486   2.009   1_455  S
O649        C658   1.272       .  A
O650       C1505   1.282       .  A
O651        C658   1.275       .  A
O652        C659   1.273       .  A
O653      Zn1485   2.000       .  S
O653        C659   1.269       .  A
C654        C843   1.440       .  S
C655        C810   1.477       .  S
C656        C820   1.474       .  S
C657       O1498   1.282   1_455  A
C657        C830   1.482       .  S
C658        C790   1.477       .  S
C659        C800   1.479       .  S
Zn660       O665   2.049       .  S
Zn660       O669   2.029       .  S
Zn660       O676   2.053       .  S
Zn660       O664   1.955       .  S
Zn661      O1514   2.001       .  S
Zn661       O668   1.997       .  S
Zn661       O672   1.972       .  S
Zn661       O664   1.962       .  S
Zn662       O667   2.040       .  S
Zn662       O670   2.047       .  S
Zn662       O673   2.052       .  S
Zn662      O1512   1.953       .  S
Zn663      O1519   1.994       .  S
Zn663       O674   1.954       .  S
Zn663       O675   1.990       .  S
Zn663       O664   1.924       .  S
O664      Zn1510   1.953       .  S
O665        C677   1.274       .  A
O666      Zn1509   2.001       .  S
O666        C678   1.269       .  A
O667       C1527   1.284       .  A
O668        C677   1.269       .  A
O669        C679   1.283       .  A
O670        C678   1.273       .  A
O671      Zn1511   1.994   1_455  S
O671        C680   1.270       .  A
O672        C681   1.266       .  A
O673        C680   1.275       .  A
O674        C681   1.267       .  A
O675        C682   1.269       .  A
O676        C682   1.275       .  A
C677        C780   1.475       .  S
C678        C763   1.477       .  S
C679       O1515   1.284       .  A
C679        C833   1.482       .  S
C680        C753   1.478       .  S
C681        C840   1.438       .  S
C682        C773   1.479       .  S
Zn683       O692   1.967       .  S
Zn683       O699   2.005       .  S
Zn684       O689   2.045       .  S
Zn684       O695   2.036       .  S
Zn685       O690   1.964       .  S
Zn685       O696   2.001       .  S
Zn685       O687   1.962       .  S
Zn686       O694   2.046       .  S
Zn686       O697   2.032       .  S
Zn686       O687   1.951       .  S
O688        C700   1.271       .  A
O689        C701   1.273       .  A
O690        C702   1.265       .  A
O691        C700   1.275       .  A
O693        C701   1.270       .  A
O694        C703   1.273       .  A
O696        C703   1.269       .  A
O697        C704   1.282       .  A
O698        C705   1.275       .  A
O699        C705   1.272       .  A
C700        C803   1.476       .  S
C701        C793   1.479       .  S
C702        C743   1.437       .  S
C703        C750   1.476       .  S
C704        C733   1.489       .  S
C705        C760   1.478       .  S
Zn706       O715   2.050       .  S
Zn706       O722   2.037       .  S
Zn707       O712   1.960       .  S
Zn707       O718   1.994       .  S
Zn708       O716   1.970       .  S
Zn708       O719   2.003       .  S
Zn708       O710   1.961       .  S
Zn709       O717   2.044       .  S
Zn709       O721   2.031       .  S
Zn709       O710   1.954       .  S
O711        C723   1.275       .  A
O713        C725   1.271       .  A
O714        C723   1.270       .  A
O715        C725   1.274       .  A
O716        C724   1.266       .  A
O717        C726   1.273       .  A
O718        C727   1.270       .  A
O719        C726   1.270       .  A
O720        C727   1.275       .  A
O721        C728   1.283       .  A
C723        C823   1.478       .  S
C724        C740   1.437       .  S
C725        C813   1.483       .  S
C726        C770   1.476       .  S
C727        C783   1.478       .  S
C728        C730   1.489       .  S
C729        C734   1.399       .  A
C729        F736   1.358       .  S
C731        C732   1.398       .  A
C731        F738   1.358       .  S
C732        F737   1.358       .  S
C734        F735   1.358       .  S
C739        C740   1.399       .  A
C739       C1592   1.388       .  A
C739        F746   1.358       .  S
C741       C1590   1.389       .  A
C741        F748   1.358       .  S
C742       C1589   1.389   1_455  A
C742        F747   1.358       .  S
C743        C744   1.399       .  A
C744       C1587   1.388   1_455  A
C744        F745   1.358       .  S
C749        C750   1.407       .  A
C749        C754   1.400       .  A
C749        F756   1.358       .  S
C750        C751   1.404       .  A
C751        C752   1.406       .  A
C751        F758   1.357       .  S
C752        C753   1.409       .  A
C752        F757   1.358       .  S
C753        C754   1.403       .  A
C754        F755   1.358       .  S
C759        C760   1.403       .  A
C759        C764   1.400       .  A
C759        F766   1.358       .  S
C760        C761   1.409       .  A
C761        C762   1.405       .  A
C761        F768   1.358       .  S
C762        C763   1.403       .  A
C762        F767   1.357       .  S
C763        C764   1.408       .  A
C764        F765   1.358       .  S
C769        C770   1.404       .  A
C769        C774   1.406       .  A
C769        F776   1.357       .  S
C770        C771   1.407       .  A
C771        C772   1.399       .  A
C771        F778   1.359       .  S
C772        C773   1.404       .  A
C772        F777   1.358       .  S
C773        C774   1.409       .  A
C774        F775   1.358       .  S
C779        C780   1.406       .  A
C779        C784   1.398       .  A
C779        F786   1.359       .  S
C780        C781   1.404       .  A
C781        C782   1.407       .  A
C781        F788   1.357       .  S
C782        C783   1.410       .  A
C782        F787   1.358       .  S
C783        C784   1.403       .  A
C784        F785   1.358       .  S
C789        C790   1.402       .  A
C789        C794   1.402       .  A
C789        F796   1.358       .  S
C790        C791   1.408       .  A
C791        C792   1.403       .  A
C791        F798   1.357       .  S
C792        C793   1.404       .  A
C792        F797   1.358       .  S
C793        C794   1.410       .  A
C794        F795   1.357       .  S
C799        C800   1.410       .  A
C799        C804   1.402       .  A
C799        F806   1.357       .  S
C800        C801   1.403       .  A
C801        C802   1.403       .  A
C801        F808   1.358       .  S
C802        C803   1.408       .  A
C802        F807   1.357       .  S
C803        C804   1.402       .  A
C804        F805   1.358       .  S
C809        C810   1.403       .  A
C809        C814   1.405       .  A
C809        F816   1.357       .  S
C810        C811   1.407       .  A
C811        C812   1.401       .  A
C811        F818   1.358       .  S
C812        C813   1.405       .  A
C812        F817   1.358       .  S
C813        C814   1.411       .  A
C814        F815   1.358       .  S
C819        C820   1.406       .  A
C819        C824   1.396       .  A
C819        F826   1.358       .  S
C820        C821   1.404       .  A
C821        C822   1.408       .  A
C821        F828   1.357       .  S
C822        C823   1.410       .  A
C822        F827   1.357       .  S
C823        C824   1.403       .  A
C824        F825   1.358       .  S
C829        C830   1.408       .  A
C829        C834   1.400       .  A
C829        F836   1.358       .  S
C830       C1679   1.408   1_455  A
C831       C1678   1.408       .  A
C831        C832   1.397       .  A
C831        F838   1.358       .  S
C832        C833   1.408       .  A
C832        F837   1.358       .  S
C833       C1682   1.408       .  A
C834       C1681   1.408       .  A
C834        F835   1.358       .  S
C839       C1688   1.400       .  A
C839        F846   1.358       .  S
C840       C1687   1.400       .  A
C840        C841   1.399       .  A
C841        F848   1.359       .  S
C842        C843   1.400       .  A
C842        F847   1.359       .  S
C843       C1692   1.401       .  A
C844       C1691   1.401       .  A
C844        F845   1.358       .  S
Zn849       O854   1.961       .  S
Zn849       O858   1.985   1_455  S
Zn850       O855   2.003       .  S
Zn850       O857   1.967       .  S
Zn851       O856   2.054       .  S
Zn851       O859   2.051       .  S
Zn851       O862   2.029       .  S
Zn852       O860   2.038       .  S
Zn852       O863   2.042       .  S
Zn852       O864   2.047       .  S
Zn852       O853   1.952       .  S
O854        C866   1.265       .  A
O855        C867   1.271       .  A
O856        C868   1.274       .  A
O857        C866   1.268   1_655  A
O858        C868   1.268       .  A
O859        C867   1.275       .  A
O860        C869   1.283       .  A
O861        C870   1.272       .  A
O863        C870   1.275       .  A
O864        C871   1.273       .  A
O865        C871   1.269       .  A
C866       C1055   1.440       .  S
C867       C1022   1.477       .  S
C868       C1032   1.474       .  S
C869       C1042   1.482       .  S
C870       C1002   1.477       .  S
C871       C1012   1.479       .  S
Zn872       O877   2.049       .  S
Zn872       O881   2.029       .  S
Zn872       O888   2.053       .  S
Zn872       O876   1.955   1_655  S
Zn873       O880   1.997   1_455  S
Zn873       O884   1.972       .  S
Zn873       O876   1.961       .  S
Zn874       O879   2.040       .  S
Zn874       O882   2.047       .  S
Zn874       O885   2.052       .  S
Zn875       O886   1.954       .  S
Zn875       O887   1.990       .  S
Zn875       O876   1.924   1_655  S
O877        C889   1.274       .  A
O878        C890   1.269       .  A
O880        C889   1.269       .  A
O881        C891   1.283   1_655  A
O882        C890   1.273       .  A
O883        C892   1.270       .  A
O884        C893   1.266       .  A
O885        C892   1.275       .  A
O886        C893   1.267   1_655  A
O887        C894   1.269       .  A
O888        C894   1.275       .  A
C889        C992   1.475       .  S
C890        C975   1.477       .  S
C891       C1045   1.482       .  S
C892        C965   1.478       .  S
C893       C1052   1.438       .  S
C894        C985   1.479       .  S
Zn895      O1324   2.003       .  S
Zn895       O904   1.967       .  S
Zn895       O911   2.005       .  S
Zn895      O1111   1.930       .  S
Zn896       O901   2.045   1_556  S
Zn896      O1115   2.047       .  S
Zn896       O907   2.036       .  S
Zn896      O1323   1.951   1_545  S
Zn897       O902   1.964       .  S
Zn897      O1329   2.001       .  S
Zn897       O908   2.001       .  S
Zn897       O899   1.962   1_554  S
Zn898       O906   2.046   1_556  S
Zn898       O909   2.032       .  S
Zn898      O1122   2.045       .  S
Zn898       O899   1.951       .  S
O899      Zn1107   1.930       .  S
O899      Zn1320   1.951       .  S
O900      Zn1319   2.003   1_545  S
O900        C912   1.271       .  A
O901        C913   1.273       .  A
O902        C914   1.265       .  A
O903      Zn1108   2.047       .  S
O903        C912   1.275       .  A
O904       C1126   1.268       .  A
O905      Zn1321   2.001   1_545  S
O905        C913   1.270       .  A
O906        C915   1.273       .  A
O907       C1340   1.283   1_545  A
O908        C915   1.269       .  A
O909        C916   1.282       .  A
O910      Zn1110   2.045       .  S
O910        C917   1.275       .  A
O911        C917   1.272       .  A
C912       C1015   1.476       .  S
C913       C1005   1.479       .  S
C914       O1116   1.268   1_554  A
C914        C955   1.437       .  S
C915        C962   1.476       .  S
C916       O1331   1.283       .  A
C916        C945   1.489   1_556  S
C917        C972   1.478       .  S
Zn918      O1135   2.054       .  S
Zn918       O927   2.050   1_556  S
Zn918       O934   2.036   1_556  S
Zn918      O1346   1.956   1_546  S
Zn919       O924   1.960       .  S
Zn919      O1350   1.989       .  S
Zn919       O930   1.994       .  S
Zn919      O1134   1.922       .  S
Zn920      O1349   2.003       .  S
Zn920       O928   1.970       .  S
Zn920       O931   2.003       .  S
Zn920       O922   1.961       .  S
Zn921       O929   2.044   1_556  S
Zn921      O1144   2.051       .  S
Zn921       O933   2.031       .  S
Zn921       O922   1.954   1_556  S
O922      Zn1342   1.956   1_554  S
O922      Zn1131   1.922   1_554  S
O923      Zn1130   2.054       .  S
O923        C935   1.275       .  A
O924       C1148   1.267       .  A
O925      Zn1344   2.003   1_545  S
O925        C937   1.271       .  A
O926      Zn1343   1.989   1_545  S
O926        C935   1.270       .  A
O927        C937   1.274       .  A
O928        C936   1.266       .  A
O929        C938   1.273       .  A
O930        C939   1.270       .  A
O931        C938   1.270       .  A
O932      Zn1133   2.051       .  S
O932        C939   1.275       .  A
O933        C940   1.283   1_556  A
O934       C1364   1.283   1_545  A
C935       C1035   1.478       .  S
C936       O1136   1.267   1_554  A
C936        C952   1.437       .  S
C937       C1025   1.483       .  S
C938        C982   1.476       .  S
C939        C995   1.478       .  S
C940       O1358   1.283       .  A
C940        C942   1.489       .  S
C941       C1366   1.410   1_545  A
C941        C946   1.399       .  A
C941        F948   1.358       .  S
C942       C1365   1.410       .  A
C942       C1155   1.410   1_554  A
C943       C1154   1.410       .  A
C943        C944   1.398       .  A
C943        F950   1.358       .  S
C944       C1157   1.410       .  A
C944        F949   1.358       .  S
C945       C1156   1.410   1_554  A
C945       C1370   1.410       .  A
C946       C1369   1.410   1_545  A
C946        F947   1.358       .  S
C951        C952   1.399       .  A
C951        F958   1.358       .  S
C952       C1589   1.399       .  A
C953       C1588   1.399   1_545  A
C953        F960   1.358       .  S
C954       C1591   1.399   1_545  A
C954        F959   1.358       .  S
C955       C1590   1.399       .  A
C955        C956   1.399       .  A
C956        F957   1.358       .  S
C961        C962   1.407       .  A
C961        C966   1.400       .  A
C961        F968   1.358       .  S
C962        C963   1.404       .  A
C963        C964   1.406       .  A
C963        F970   1.357       .  S
C964        C965   1.409       .  A
C964        F969   1.358       .  S
C965        C966   1.403       .  A
C966        F967   1.358       .  S
C971        C972   1.403       .  A
C971        C976   1.400       .  A
C971        F978   1.358       .  S
C972        C973   1.409       .  A
C973        C974   1.405       .  A
C973        F980   1.358       .  S
C974        C975   1.403       .  A
C974        F979   1.357       .  S
C975        C976   1.408       .  A
C976        F977   1.358       .  S
C981        C982   1.404       .  A
C981        C986   1.406       .  A
C981        F988   1.357       .  S
C982        C983   1.407       .  A
C983        C984   1.399       .  A
C983        F990   1.359       .  S
C984        C985   1.404       .  A
C984        F989   1.358       .  S
C985        C986   1.409       .  A
C986        F987   1.358       .  S
C991        C992   1.406       .  A
C991        C996   1.398       .  A
C991        F998   1.359       .  S
C992        C993   1.404       .  A
C993        C994   1.407       .  A
C993       F1000   1.357       .  S
C994        C995   1.410       .  A
C994        F999   1.358       .  S
C995        C996   1.403       .  A
C996        F997   1.358       .  S
C1001      C1002   1.402       .  A
C1001      C1006   1.402       .  A
C1001      F1008   1.358       .  S
C1002      C1003   1.408       .  A
C1003      C1004   1.403       .  A
C1003      F1010   1.357       .  S
C1004      C1005   1.404       .  A
C1004      F1009   1.358       .  S
C1005      C1006   1.410       .  A
C1006      F1007   1.357       .  S
C1011      C1012   1.410       .  A
C1011      C1016   1.402       .  A
C1011      F1018   1.357       .  S
C1012      C1013   1.403       .  A
C1013      C1014   1.403       .  A
C1013      F1020   1.358       .  S
C1014      C1015   1.408       .  A
C1014      F1019   1.357       .  S
C1015      C1016   1.402       .  A
C1016      F1017   1.358       .  S
C1021      C1022   1.403       .  A
C1021      C1026   1.405       .  A
C1021      F1028   1.357       .  S
C1022      C1023   1.407       .  A
C1023      C1024   1.401       .  A
C1023      F1030   1.358       .  S
C1024      C1025   1.405       .  A
C1024      F1029   1.358       .  S
C1025      C1026   1.411       .  A
C1026      F1027   1.358       .  S
C1031      C1032   1.406       .  A
C1031      C1036   1.396       .  A
C1031      F1038   1.358       .  S
C1032      C1033   1.404       .  A
C1033      C1034   1.408       .  A
C1033      F1040   1.357       .  S
C1034      C1035   1.410       .  A
C1034      F1039   1.357       .  S
C1035      C1036   1.403       .  A
C1036      F1037   1.358       .  S
C1041      C1042   1.408       .  A
C1041      C1046   1.400       .  A
C1041      F1048   1.358       .  S
C1043      C1044   1.397       .  A
C1043      F1050   1.358       .  S
C1044      C1045   1.408   1_655  A
C1044      F1049   1.358       .  S
C1046      F1047   1.358       .  S
C1051      C1480   1.391       .  A
C1051      F1058   1.358       .  S
C1052      C1053   1.399   1_455  A
C1053      C1478   1.385       .  A
C1053      F1060   1.359       .  S
C1054      C1477   1.385   1_545  A
C1054      C1055   1.400   1_655  A
C1054      F1059   1.359       .  S
C1056      C1475   1.391   1_545  A
C1056      F1057   1.358       .  S
Zn1061     O1066   1.961       .  S
Zn1061     O1070   1.985   1_455  S
Zn1062     O1067   2.003       .  S
Zn1062     O1069   1.967       .  S
Zn1063     O1068   2.054       .  S
Zn1063     O1071   2.051       .  S
Zn1063     O1074   2.029       .  S
Zn1064     O1072   2.038       .  S
Zn1064     O1075   2.042       .  S
Zn1064     O1076   2.047       .  S
Zn1064     O1065   1.952       .  S
O1066      C1078   1.265       .  A
O1067      C1079   1.271       .  A
O1068      C1080   1.274       .  A
O1069      C1078   1.268   1_655  A
O1070      C1080   1.268       .  A
O1071      C1079   1.275       .  A
O1072      C1081   1.283       .  A
O1073      C1082   1.272       .  A
O1075      C1082   1.275       .  A
O1076      C1083   1.273       .  A
O1077      C1083   1.269       .  A
C1078      C1267   1.440       .  S
C1079      C1234   1.477       .  S
C1080      C1244   1.474       .  S
C1081      C1254   1.482       .  S
C1082      C1214   1.477       .  S
C1083      C1224   1.479       .  S
Zn1084     O1089   2.049       .  S
Zn1084     O1093   2.029       .  S
Zn1084     O1100   2.053       .  S
Zn1084     O1088   1.955   1_655  S
Zn1085     O1092   1.997   1_455  S
Zn1085     O1096   1.972       .  S
Zn1085     O1088   1.962       .  S
Zn1086     O1091   2.040       .  S
Zn1086     O1094   2.047       .  S
Zn1086     O1097   2.052       .  S
Zn1087     O1098   1.954       .  S
Zn1087     O1099   1.990       .  S
Zn1087     O1088   1.924   1_655  S
O1089      C1101   1.274       .  A
O1090      C1102   1.269       .  A
O1092      C1101   1.269       .  A
O1093      C1103   1.283   1_655  A
O1094      C1102   1.273       .  A
O1095      C1104   1.270       .  A
O1096      C1105   1.266       .  A
O1097      C1104   1.275       .  A
O1098      C1105   1.267   1_655  A
O1099      C1106   1.269       .  A
O1100      C1106   1.275       .  A
C1101      C1204   1.475       .  S
C1102      C1187   1.477       .  S
C1103      C1257   1.482       .  S
C1104      C1177   1.478       .  S
C1105      C1264   1.438       .  S
C1106      C1197   1.479       .  S
Zn1107     O1536   2.003       .  S
Zn1107     O1116   1.967       .  S
Zn1107     O1123   2.005       .  S
Zn1108     O1113   2.045       .  S
Zn1108     O1119   2.036       .  S
Zn1108     O1535   1.951   1_545  S
Zn1109     O1114   1.964       .  S
Zn1109     O1541   2.001       .  S
Zn1109     O1120   2.001       .  S
Zn1109     O1111   1.962       .  S
Zn1110     O1118   2.046       .  S
Zn1110     O1121   2.032       .  S
Zn1110     O1111   1.951       .  S
O1111     Zn1532   1.951       .  S
O1112     Zn1531   2.003   1_545  S
O1112      C1124   1.271       .  A
O1113      C1125   1.273       .  A
O1114      C1126   1.265       .  A
O1115      C1124   1.275       .  A
O1117     Zn1533   2.001   1_545  S
O1117      C1125   1.270       .  A
O1118      C1127   1.273       .  A
O1119      C1552   1.283   1_545  A
O1120      C1127   1.269       .  A
O1121      C1128   1.282       .  A
O1122      C1129   1.275       .  A
O1123      C1129   1.272       .  A
C1124      C1227   1.476       .  S
C1125      C1217   1.479       .  S
C1126      C1167   1.437       .  S
C1127      C1174   1.476       .  S
C1128      O1543   1.283       .  A
C1128      C1157   1.489       .  S
C1129      C1184   1.478       .  S
Zn1130     O1139   2.050       .  S
Zn1130     O1146   2.037       .  S
Zn1130     O1558   1.956   1_545  S
Zn1131     O1136   1.960       .  S
Zn1131     O1562   1.989       .  S
Zn1131     O1142   1.994       .  S
Zn1132     O1561   2.003       .  S
Zn1132     O1140   1.970       .  S
Zn1132     O1143   2.003       .  S
Zn1132     O1134   1.961       .  S
Zn1133     O1141   2.044       .  S
Zn1133     O1145   2.031       .  S
Zn1133     O1134   1.954       .  S
O1134     Zn1554   1.956       .  S
O1135      C1147   1.275       .  A
O1137     Zn1556   2.003   1_545  S
O1137      C1149   1.271       .  A
O1138     Zn1555   1.989   1_545  S
O1138      C1147   1.270       .  A
O1139      C1149   1.274       .  A
O1140      C1148   1.266       .  A
O1141      C1150   1.273       .  A
O1142      C1151   1.270       .  A
O1143      C1150   1.270       .  A
O1144      C1151   1.275       .  A
O1145      C1152   1.283       .  A
O1146      C1576   1.283   1_545  A
C1147      C1247   1.478       .  S
C1148      C1164   1.437       .  S
C1149      C1237   1.483       .  S
C1150      C1194   1.476       .  S
C1151      C1207   1.478       .  S
C1152      O1570   1.283       .  A
C1152      C1154   1.489       .  S
C1153      C1578   1.410   1_545  A
C1153      C1158   1.399       .  A
C1153      F1160   1.358       .  S
C1154      C1577   1.410       .  A
C1155      C1156   1.398       .  A
C1155      F1162   1.358       .  S
C1156      F1161   1.358       .  S
C1157      C1582   1.410       .  A
C1158      C1581   1.410   1_545  A
C1158      F1159   1.358       .  S
C1163      C1164   1.399       .  A
C1163      F1170   1.358       .  S
C1164      C1377   1.399       .  A
C1165      C1376   1.399   1_545  A
C1165      F1172   1.358       .  S
C1166      C1379   1.399   1_545  A
C1166      F1171   1.358       .  S
C1167      C1378   1.399       .  A
C1167      C1168   1.399       .  A
C1168      F1169   1.358       .  S
C1173      C1174   1.407       .  A
C1173      C1178   1.400       .  A
C1173      F1180   1.358       .  S
C1174      C1175   1.404       .  A
C1175      C1176   1.406       .  A
C1175      F1182   1.357       .  S
C1176      C1177   1.409       .  A
C1176      F1181   1.358       .  S
C1177      C1178   1.403       .  A
C1178      F1179   1.358       .  S
C1183      C1184   1.403       .  A
C1183      C1188   1.400       .  A
C1183      F1190   1.358       .  S
C1184      C1185   1.409       .  A
C1185      C1186   1.405       .  A
C1185      F1192   1.358       .  S
C1186      C1187   1.403       .  A
C1186      F1191   1.357       .  S
C1187      C1188   1.408       .  A
C1188      F1189   1.358       .  S
C1193      C1194   1.404       .  A
C1193      C1198   1.406       .  A
C1193      F1200   1.357       .  S
C1194      C1195   1.407       .  A
C1195      C1196   1.399       .  A
C1195      F1202   1.359       .  S
C1196      C1197   1.404       .  A
C1196      F1201   1.358       .  S
C1197      C1198   1.409       .  A
C1198      F1199   1.358       .  S
C1203      C1204   1.406       .  A
C1203      C1208   1.398       .  A
C1203      F1210   1.359       .  S
C1204      C1205   1.404       .  A
C1205      C1206   1.407       .  A
C1205      F1212   1.357       .  S
C1206      C1207   1.410       .  A
C1206      F1211   1.358       .  S
C1207      C1208   1.403       .  A
C1208      F1209   1.358       .  S
C1213      C1214   1.402       .  A
C1213      C1218   1.402       .  A
C1213      F1220   1.358       .  S
C1214      C1215   1.408       .  A
C1215      C1216   1.403       .  A
C1215      F1222   1.357       .  S
C1216      C1217   1.404       .  A
C1216      F1221   1.358       .  S
C1217      C1218   1.410       .  A
C1218      F1219   1.357       .  S
C1223      C1224   1.410       .  A
C1223      C1228   1.402       .  A
C1223      F1230   1.357       .  S
C1224      C1225   1.403       .  A
C1225      C1226   1.403       .  A
C1225      F1232   1.358       .  S
C1226      C1227   1.408       .  A
C1226      F1231   1.357       .  S
C1227      C1228   1.402       .  A
C1228      F1229   1.358       .  S
C1233      C1234   1.403       .  A
C1233      C1238   1.405       .  A
C1233      F1240   1.357       .  S
C1234      C1235   1.407       .  A
C1235      C1236   1.401       .  A
C1235      F1242   1.358       .  S
C1236      C1237   1.405       .  A
C1236      F1241   1.358       .  S
C1237      C1238   1.411       .  A
C1238      F1239   1.358       .  S
C1243      C1244   1.406       .  A
C1243      C1248   1.396       .  A
C1243      F1250   1.358       .  S
C1244      C1245   1.404       .  A
C1245      C1246   1.408       .  A
C1245      F1252   1.357       .  S
C1246      C1247   1.410       .  A
C1246      F1251   1.357       .  S
C1247      C1248   1.403       .  A
C1248      F1249   1.358       .  S
C1253      C1254   1.408       .  A
C1253      C1258   1.400       .  A
C1253      F1260   1.358       .  S
C1255      C1256   1.397       .  A
C1255      F1262   1.358       .  S
C1256      C1257   1.408   1_655  A
C1256      F1261   1.358       .  S
C1258      F1259   1.358       .  S
C1263      C1692   1.391       .  A
C1263      F1270   1.358       .  S
C1264      C1265   1.399   1_455  A
C1265      C1690   1.385       .  A
C1265      F1272   1.359       .  S
C1266      C1689   1.385   1_545  A
C1266      C1267   1.400   1_655  A
C1266      F1271   1.359       .  S
C1268      C1687   1.391   1_545  A
C1268      F1269   1.358       .  S
Zn1273     O1278   1.961       .  S
Zn1273     O1282   1.985   1_455  S
Zn1274     O1279   2.003       .  S
Zn1274     O1281   1.967       .  S
Zn1275     O1280   2.054       .  S
Zn1275     O1283   2.051       .  S
Zn1275     O1286   2.029       .  S
Zn1276     O1284   2.038       .  S
Zn1276     O1287   2.042       .  S
Zn1276     O1288   2.047       .  S
Zn1276     O1277   1.952       .  S
O1278      C1290   1.265       .  A
O1279      C1291   1.271       .  A
O1280      C1292   1.274       .  A
O1281      C1290   1.268   1_655  A
O1282      C1292   1.268       .  A
O1283      C1291   1.275       .  A
O1284      C1293   1.283       .  A
O1285      C1294   1.272       .  A
O1287      C1294   1.275       .  A
O1288      C1295   1.273       .  A
O1289      C1295   1.269       .  A
C1290      C1479   1.440       .  S
C1291      C1446   1.477       .  S
C1292      C1456   1.474       .  S
C1293      C1466   1.482       .  S
C1294      C1426   1.477       .  S
C1295      C1436   1.479       .  S
Zn1296     O1301   2.049       .  S
Zn1296     O1305   2.029       .  S
Zn1296     O1312   2.053       .  S
Zn1296     O1300   1.955   1_655  S
Zn1297     O1304   1.997   1_455  S
Zn1297     O1308   1.972       .  S
Zn1297     O1300   1.961       .  S
Zn1298     O1303   2.040       .  S
Zn1298     O1306   2.047       .  S
Zn1298     O1309   2.052       .  S
Zn1299     O1310   1.954       .  S
Zn1299     O1311   1.990       .  S
Zn1299     O1300   1.924   1_655  S
O1301      C1313   1.274       .  A
O1302      C1314   1.269       .  A
O1304      C1313   1.269       .  A
O1305      C1315   1.283   1_655  A
O1306      C1314   1.273       .  A
O1307      C1316   1.270       .  A
O1308      C1317   1.266       .  A
O1309      C1316   1.275       .  A
O1310      C1317   1.267   1_655  A
O1311      C1318   1.269       .  A
O1312      C1318   1.275       .  A
C1313      C1416   1.475       .  S
C1314      C1399   1.477       .  S
C1315      C1469   1.482       .  S
C1316      C1389   1.478       .  S
C1317      C1476   1.438       .  S
C1318      C1409   1.479       .  S
Zn1319     O1328   1.967       .  S
Zn1319     O1335   2.005       .  S
Zn1319     O1535   1.930       .  S
Zn1320     O1325   2.045   1_556  S
Zn1320     O1539   2.047       .  S
Zn1320     O1331   2.036       .  S
Zn1321     O1326   1.964       .  S
Zn1321     O1332   2.001       .  S
Zn1321     O1323   1.962   1_554  S
Zn1322     O1330   2.046   1_556  S
Zn1322     O1333   2.032       .  S
Zn1322     O1546   2.045       .  S
Zn1322     O1323   1.951       .  S
O1323     Zn1531   1.930       .  S
O1324      C1336   1.271       .  A
O1325      C1337   1.273       .  A
O1326      C1338   1.265       .  A
O1327     Zn1532   2.047       .  S
O1327      C1336   1.275       .  A
O1328      C1550   1.268       .  A
O1329      C1337   1.270       .  A
O1330      C1339   1.273       .  A
O1332      C1339   1.269       .  A
O1333      C1340   1.282       .  A
O1334     Zn1534   2.045       .  S
O1334      C1341   1.275       .  A
O1335      C1341   1.272       .  A
C1336      C1439   1.476       .  S
C1337      C1429   1.479       .  S
C1338      O1540   1.268   1_554  A
C1338      C1379   1.437       .  S
C1339      C1386   1.476       .  S
C1340      C1369   1.489   1_556  S
C1341      C1396   1.478       .  S
Zn1342     O1559   2.054       .  S
Zn1342     O1351   2.050   1_556  S
Zn1342     O1358   2.036   1_556  S
Zn1343     O1348   1.960       .  S
Zn1343     O1354   1.994       .  S
Zn1343     O1558   1.922       .  S
Zn1344     O1352   1.970       .  S
Zn1344     O1355   2.003       .  S
Zn1344     O1346   1.961       .  S
Zn1345     O1353   2.044   1_556  S
Zn1345     O1568   2.051       .  S
Zn1345     O1357   2.031       .  S
Zn1345     O1346   1.954   1_556  S
O1346     Zn1555   1.922   1_554  S
O1347     Zn1554   2.054       .  S
O1347      C1359   1.275       .  A
O1348      C1572   1.267       .  A
O1349      C1361   1.271       .  A
O1350      C1359   1.270       .  A
O1351      C1361   1.274       .  A
O1352      C1360   1.266       .  A
O1353      C1362   1.273       .  A
O1354      C1363   1.270       .  A
O1355      C1362   1.270       .  A
O1356     Zn1557   2.051       .  S
O1356      C1363   1.275       .  A
O1357      C1364   1.283   1_556  A
C1359      C1459   1.478       .  S
C1360      O1560   1.267   1_554  A
C1360      C1376   1.437       .  S
C1361      C1449   1.483       .  S
C1362      C1406   1.476       .  S
C1363      C1419   1.478       .  S
C1364      C1366   1.489       .  S
C1365      C1370   1.399       .  A
C1365      F1372   1.358       .  S
C1366      C1579   1.410   1_554  A
C1367      C1578   1.410       .  A
C1367      C1368   1.398       .  A
C1367      F1374   1.358       .  S
C1368      C1581   1.410       .  A
C1368      F1373   1.358       .  S
C1369      C1580   1.410   1_554  A
C1370      F1371   1.358       .  S
C1375      C1376   1.399       .  A
C1375      F1382   1.358       .  S
C1377      F1384   1.358       .  S
C1378      F1383   1.358       .  S
C1379      C1380   1.399       .  A
C1380      F1381   1.358       .  S
C1385      C1386   1.407       .  A
C1385      C1390   1.400       .  A
C1385      F1392   1.358       .  S
C1386      C1387   1.404       .  A
C1387      C1388   1.406       .  A
C1387      F1394   1.357       .  S
C1388      C1389   1.409       .  A
C1388      F1393   1.358       .  S
C1389      C1390   1.403       .  A
C1390      F1391   1.358       .  S
C1395      C1396   1.403       .  A
C1395      C1400   1.400       .  A
C1395      F1402   1.358       .  S
C1396      C1397   1.409       .  A
C1397      C1398   1.405       .  A
C1397      F1404   1.358       .  S
C1398      C1399   1.403       .  A
C1398      F1403   1.357       .  S
C1399      C1400   1.408       .  A
C1400      F1401   1.358       .  S
C1405      C1406   1.404       .  A
C1405      C1410   1.406       .  A
C1405      F1412   1.357       .  S
C1406      C1407   1.407       .  A
C1407      C1408   1.399       .  A
C1407      F1414   1.359       .  S
C1408      C1409   1.404       .  A
C1408      F1413   1.358       .  S
C1409      C1410   1.409       .  A
C1410      F1411   1.358       .  S
C1415      C1416   1.406       .  A
C1415      C1420   1.398       .  A
C1415      F1422   1.359       .  S
C1416      C1417   1.404       .  A
C1417      C1418   1.407       .  A
C1417      F1424   1.357       .  S
C1418      C1419   1.410       .  A
C1418      F1423   1.358       .  S
C1419      C1420   1.403       .  A
C1420      F1421   1.358       .  S
C1425      C1426   1.402       .  A
C1425      C1430   1.402       .  A
C1425      F1432   1.358       .  S
C1426      C1427   1.408       .  A
C1427      C1428   1.403       .  A
C1427      F1434   1.357       .  S
C1428      C1429   1.404       .  A
C1428      F1433   1.358       .  S
C1429      C1430   1.410       .  A
C1430      F1431   1.357       .  S
C1435      C1436   1.410       .  A
C1435      C1440   1.402       .  A
C1435      F1442   1.357       .  S
C1436      C1437   1.403       .  A
C1437      C1438   1.403       .  A
C1437      F1444   1.358       .  S
C1438      C1439   1.408       .  A
C1438      F1443   1.357       .  S
C1439      C1440   1.402       .  A
C1440      F1441   1.358       .  S
C1445      C1446   1.403       .  A
C1445      C1450   1.405       .  A
C1445      F1452   1.357       .  S
C1446      C1447   1.407       .  A
C1447      C1448   1.401       .  A
C1447      F1454   1.358       .  S
C1448      C1449   1.405       .  A
C1448      F1453   1.358       .  S
C1449      C1450   1.411       .  A
C1450      F1451   1.358       .  S
C1455      C1456   1.406       .  A
C1455      C1460   1.396       .  A
C1455      F1462   1.358       .  S
C1456      C1457   1.404       .  A
C1457      C1458   1.408       .  A
C1457      F1464   1.357       .  S
C1458      C1459   1.410       .  A
C1458      F1463   1.357       .  S
C1459      C1460   1.403       .  A
C1460      F1461   1.358       .  S
C1465      C1466   1.408       .  A
C1465      C1470   1.400       .  A
C1465      F1472   1.358       .  S
C1467      C1468   1.397       .  A
C1467      F1474   1.358       .  S
C1468      C1469   1.408   1_655  A
C1468      F1473   1.358       .  S
C1470      F1471   1.358       .  S
C1475      F1482   1.358       .  S
C1476      C1477   1.399   1_455  A
C1477      F1484   1.359       .  S
C1478      C1479   1.400   1_655  A
C1478      F1483   1.359       .  S
C1480      F1481   1.358       .  S
Zn1485     O1490   1.961       .  S
Zn1485     O1494   1.985   1_455  S
Zn1486     O1491   2.003       .  S
Zn1486     O1493   1.967       .  S
Zn1487     O1492   2.054       .  S
Zn1487     O1495   2.051       .  S
Zn1487     O1498   2.029       .  S
Zn1488     O1496   2.038       .  S
Zn1488     O1499   2.042       .  S
Zn1488     O1500   2.047       .  S
Zn1488     O1489   1.952       .  S
O1490      C1502   1.265       .  A
O1491      C1503   1.271       .  A
O1492      C1504   1.274       .  A
O1493      C1502   1.268   1_655  A
O1494      C1504   1.268       .  A
O1495      C1503   1.275       .  A
O1496      C1505   1.283       .  A
O1497      C1506   1.272       .  A
O1499      C1506   1.275       .  A
O1500      C1507   1.273       .  A
O1501      C1507   1.269       .  A
C1502      C1691   1.440       .  S
C1503      C1658   1.477       .  S
C1504      C1668   1.474       .  S
C1505      C1678   1.482       .  S
C1506      C1638   1.477       .  S
C1507      C1648   1.479       .  S
Zn1508     O1513   2.049       .  S
Zn1508     O1517   2.029       .  S
Zn1508     O1524   2.053       .  S
Zn1508     O1512   1.955   1_655  S
Zn1509     O1516   1.997   1_455  S
Zn1509     O1520   1.972       .  S
Zn1509     O1512   1.962       .  S
Zn1510     O1515   2.040       .  S
Zn1510     O1518   2.047       .  S
Zn1510     O1521   2.052       .  S
Zn1511     O1522   1.954       .  S
Zn1511     O1523   1.990       .  S
Zn1511     O1512   1.924   1_655  S
O1513      C1525   1.274       .  A
O1514      C1526   1.269       .  A
O1516      C1525   1.269       .  A
O1517      C1527   1.283   1_655  A
O1518      C1526   1.273       .  A
O1519      C1528   1.270       .  A
O1520      C1529   1.266       .  A
O1521      C1528   1.275       .  A
O1522      C1529   1.267   1_655  A
O1523      C1530   1.269       .  A
O1524      C1530   1.275       .  A
C1525      C1628   1.475       .  S
C1526      C1611   1.477       .  S
C1527      C1681   1.482       .  S
C1528      C1601   1.478       .  S
C1529      C1688   1.438       .  S
C1530      C1621   1.479       .  S
Zn1531     O1540   1.967       .  S
Zn1531     O1547   2.005       .  S
Zn1532     O1537   2.045       .  S
Zn1532     O1543   2.036       .  S
Zn1533     O1538   1.964       .  S
Zn1533     O1544   2.001       .  S
Zn1533     O1535   1.962       .  S
Zn1534     O1542   2.046       .  S
Zn1534     O1545   2.032       .  S
Zn1534     O1535   1.951       .  S
O1536      C1548   1.271       .  A
O1537      C1549   1.273       .  A
O1538      C1550   1.265       .  A
O1539      C1548   1.275       .  A
O1541      C1549   1.270       .  A
O1542      C1551   1.273       .  A
O1544      C1551   1.269       .  A
O1545      C1552   1.282       .  A
O1546      C1553   1.275       .  A
O1547      C1553   1.272       .  A
C1548      C1651   1.476       .  S
C1549      C1641   1.479       .  S
C1550      C1591   1.437       .  S
C1551      C1598   1.476       .  S
C1552      C1581   1.489       .  S
C1553      C1608   1.478       .  S
Zn1554     O1563   2.050       .  S
Zn1554     O1570   2.037       .  S
Zn1555     O1560   1.960       .  S
Zn1555     O1566   1.994       .  S
Zn1556     O1564   1.970       .  S
Zn1556     O1567   2.003       .  S
Zn1556     O1558   1.961       .  S
Zn1557     O1565   2.044       .  S
Zn1557     O1569   2.031       .  S
Zn1557     O1558   1.954       .  S
O1559      C1571   1.275       .  A
O1561      C1573   1.271       .  A
O1562      C1571   1.270       .  A
O1563      C1573   1.274       .  A
O1564      C1572   1.266       .  A
O1565      C1574   1.273       .  A
O1566      C1575   1.270       .  A
O1567      C1574   1.270       .  A
O1568      C1575   1.275       .  A
O1569      C1576   1.283       .  A
C1571      C1671   1.478       .  S
C1572      C1588   1.437       .  S
C1573      C1661   1.483       .  S
C1574      C1618   1.476       .  S
C1575      C1631   1.478       .  S
C1576      C1578   1.489       .  S
C1577      C1582   1.399       .  A
C1577      F1584   1.358       .  S
C1579      C1580   1.398       .  A
C1579      F1586   1.358       .  S
C1580      F1585   1.358       .  S
C1582      F1583   1.358       .  S
C1587      C1588   1.399       .  A
C1587      F1594   1.358       .  S
C1589      F1596   1.358       .  S
C1590      F1595   1.358       .  S
C1591      C1592   1.399       .  A
C1592      F1593   1.358       .  S
C1597      C1598   1.407       .  A
C1597      C1602   1.400       .  A
C1597      F1604   1.358       .  S
C1598      C1599   1.404       .  A
C1599      C1600   1.406       .  A
C1599      F1606   1.357       .  S
C1600      C1601   1.409       .  A
C1600      F1605   1.358       .  S
C1601      C1602   1.403       .  A
C1602      F1603   1.358       .  S
C1607      C1608   1.403       .  A
C1607      C1612   1.400       .  A
C1607      F1614   1.358       .  S
C1608      C1609   1.409       .  A
C1609      C1610   1.405       .  A
C1609      F1616   1.358       .  S
C1610      C1611   1.403       .  A
C1610      F1615   1.357       .  S
C1611      C1612   1.408       .  A
C1612      F1613   1.358       .  S
C1617      C1618   1.404       .  A
C1617      C1622   1.406       .  A
C1617      F1624   1.357       .  S
C1618      C1619   1.407       .  A
C1619      C1620   1.399       .  A
C1619      F1626   1.359       .  S
C1620      C1621   1.404       .  A
C1620      F1625   1.358       .  S
C1621      C1622   1.409       .  A
C1622      F1623   1.358       .  S
C1627      C1628   1.406       .  A
C1627      C1632   1.398       .  A
C1627      F1634   1.359       .  S
C1628      C1629   1.404       .  A
C1629      C1630   1.407       .  A
C1629      F1636   1.357       .  S
C1630      C1631   1.410       .  A
C1630      F1635   1.358       .  S
C1631      C1632   1.403       .  A
C1632      F1633   1.358       .  S
C1637      C1638   1.402       .  A
C1637      C1642   1.402       .  A
C1637      F1644   1.358       .  S
C1638      C1639   1.408       .  A
C1639      C1640   1.403       .  A
C1639      F1646   1.357       .  S
C1640      C1641   1.404       .  A
C1640      F1645   1.358       .  S
C1641      C1642   1.410       .  A
C1642      F1643   1.357       .  S
C1647      C1648   1.410       .  A
C1647      C1652   1.402       .  A
C1647      F1654   1.357       .  S
C1648      C1649   1.403       .  A
C1649      C1650   1.403       .  A
C1649      F1656   1.358       .  S
C1650      C1651   1.408       .  A
C1650      F1655   1.357       .  S
C1651      C1652   1.402       .  A
C1652      F1653   1.358       .  S
C1657      C1658   1.403       .  A
C1657      C1662   1.405       .  A
C1657      F1664   1.357       .  S
C1658      C1659   1.407       .  A
C1659      C1660   1.401       .  A
C1659      F1666   1.358       .  S
C1660      C1661   1.405       .  A
C1660      F1665   1.358       .  S
C1661      C1662   1.411       .  A
C1662      F1663   1.358       .  S
C1667      C1668   1.406       .  A
C1667      C1672   1.396       .  A
C1667      F1674   1.358       .  S
C1668      C1669   1.404       .  A
C1669      C1670   1.408       .  A
C1669      F1676   1.357       .  S
C1670      C1671   1.410       .  A
C1670      F1675   1.357       .  S
C1671      C1672   1.403       .  A
C1672      F1673   1.358       .  S
C1677      C1678   1.408       .  A
C1677      C1682   1.400       .  A
C1677      F1684   1.358       .  S
C1679      C1680   1.397       .  A
C1679      F1686   1.358       .  S
C1680      C1681   1.408   1_655  A
C1680      F1685   1.358       .  S
C1682      F1683   1.358       .  S
C1687      F1694   1.358       .  S
C1688      C1689   1.399   1_455  A
C1689      F1696   1.359       .  S
C1690      C1691   1.400   1_655  A
C1690      F1695   1.359       .  S
C1692      F1693   1.358       .  S
