geometry optimzed in LAMMPS
_audit_creation_date              2020-12-01 
_audit_creation_method            'lammps2cif' 
_symmetry_space_group_name_H-M    'P1' 
_symmetry_Int_Tables_number       1 
_symmetry_cell_setting            triclinic 
loop_ 
_symmetry_equiv_pos_as_xyz 
  x,y,z 
_cell_length_a                    36.00140135 
_cell_length_b                    34.11972184562216 
_cell_length_c                    34.87648819616702 
_cell_angle_alpha                 90.5729691886119 
_cell_angle_beta                  91.22925730666489 
_cell_angle_gamma                 90.9380723472604 
loop_ 
_atom_site_label 
_atom_site_type_symbol 
_atom_site_fract_x 
_atom_site_fract_y 
_atom_site_fract_z 
_atom_site_charge 
O1          O  0.68678217  0.80119382  0.68525597    -0.81900
O2          O  0.83065992  0.72855391  0.74654757    -0.66500
O3          O  0.73047077  0.73927446  0.70908980    -1.13100
C4          C  0.71226518  0.77883482  0.83810831     1.05000
O5          O  0.80627139  0.69313043  0.79176238    -0.79800
O6          O  0.73545914  0.68872906  0.81438911    -0.67300
Ni7        Ni  0.71904239  0.76402505  0.66214305     1.34900
C8          C  0.70521689  0.68491737  0.79534554     0.83800
O9          O  0.79686796  0.71391356  0.67805421    -0.80300
O10         O  0.75048371  0.72843922  0.63620814    -0.90600
C11         C  0.83470918  0.70715645  0.77589664     0.83300
O12         O  0.75763740  0.80283737  0.66264034    -0.68800
O13         O  0.74230139  0.76097031  0.84503311    -0.88100
C14         C  0.78716325  0.80889757  0.68240718     0.84200
C15         C  0.78140072  0.71262067  0.64484546     1.05700
H16         H  0.77320473  0.78176610  0.77613220     0.37500
O17         O  0.76282519  0.75568806  0.77228340    -1.10700
O18         O  0.69442083  0.70951124  0.77037405    -0.67400
Ni19       Ni  0.71246001  0.76115952  0.75567521     1.26300
O20         O  0.79716702  0.78665537  0.70982665    -0.67600
O21         O  0.69740072  0.78166268  0.80445900    -0.79900
C22         C  0.65893184  0.79163910  0.70501384     0.83600
O23         O  0.66326582  0.76999171  0.73436912    -0.67100
Ni24       Ni  0.77385712  0.72768552  0.81745675     1.27400
Ni25       Ni  0.78106119  0.73481974  0.72562081     1.26100
H26         H  0.72061707  0.71285963  0.70633920     0.38100
C27         C  0.85065594  0.34747041  0.53050770     0.85500
C28         C  0.89339955  0.34323350  0.53190517    -0.54700
C29         C  0.91115683  0.36100783  0.50245861     0.08400
C30         C  0.88521836  0.38269822  0.47507874     0.19400
C31         C  0.84537988  0.39205166  0.52949228    -0.55400
C32         C  0.86421399  0.41027878  0.50138466     0.08600
C33         C  0.83829920  0.33319380  0.49028535    -0.55000
C34         C  0.85600918  0.35214421  0.46129982     0.09100
H35         H  0.90843667  0.32789079  0.55434130     0.13600
H36         H  0.90001953  0.39765697  0.45157396    -0.00600
H37         H  0.83050697  0.40905063  0.55028169     0.13900
H38         H  0.81732936  0.31038980  0.48520464     0.13700
C39         C  0.13125259  0.33913355  0.46002493     0.85500
C40         C  0.08873995  0.33364940  0.45717619    -0.54700
C41         C  0.07009241  0.35185754  0.48585753     0.08400
C42         C  0.09573731  0.37431802  0.51471467     0.19400
C43         C  0.13838139  0.38356236  0.46259179    -0.55400
C44         C  0.11943555  0.40197308  0.49038395     0.08600
C45         C  0.14138719  0.32465336  0.50068083    -0.55000
C46         C  0.12260630  0.34317092  0.52902780     0.09100
H47         H  0.07478972  0.31780003  0.43375053     0.13600
H48         H  0.08110605  0.38937791  0.53824320    -0.00600
H49         H  0.15640456  0.39944256  0.44330151     0.13900
H50         H  0.16151186  0.30250752  0.50766537     0.13700
C51         C  0.85884294  0.64239085  0.51892321     0.85500
C52         C  0.85462083  0.59757996  0.52116804    -0.54700
C53         C  0.87362896  0.57748382  0.49409740     0.08400
C54         C  0.89476047  0.60390712  0.46657667     0.19400
C55         C  0.90053776  0.65076806  0.51951764    -0.55400
C56         C  0.91939604  0.63000264  0.49299094     0.08600
C57         C  0.84528805  0.65037426  0.47797422    -0.55000
C58         C  0.86425876  0.63049098  0.45075949     0.09100
H59         H  0.83732184  0.58277563  0.54186453     0.13600
H60         H  0.91059877  0.58800065  0.44453570    -0.00600
H61         H  0.91447576  0.66873305  0.54154702     0.13900
H62         H  0.82092099  0.66717714  0.47063168     0.13700
C63         C  0.13225893  0.62513713  0.55984515     0.85500
C64         C  0.09103888  0.63383982  0.55335762    -0.54700
C65         C  0.07716215  0.62292517  0.51806471     0.08400
C66         C  0.10573945  0.60333061  0.49243237     0.19400
C67         C  0.13395282  0.58062923  0.55182771    -0.55400
C68         C  0.12042868  0.56911208  0.51653011     0.08600
C69         C  0.15245014  0.64369038  0.52616495    -0.55000
C70         C  0.13823686  0.63312081  0.49095437     0.09100
H71         H  0.07383084  0.64625587  0.57546885     0.13600
H72         H  0.09456758  0.59439555  0.46377619    -0.00600
H73         H  0.14300608  0.55891996  0.57217140     0.13900
H74         H  0.17643066  0.66311973  0.53010104     0.13700
C75         C  0.37387954  0.46601361  0.85512017     0.85500
C76         C  0.41618643  0.46600853  0.84896120    -0.54700
C77         C  0.43512439  0.49716805  0.86509009     0.08400
C78         C  0.41031983  0.52499194  0.88793708     0.19400
C79         C  0.37118073  0.46768061  0.89919064    -0.55400
C80         C  0.39005742  0.49838937  0.91697243     0.08600
C81         C  0.36148496  0.50653327  0.84153995    -0.55000
C82         C  0.37996994  0.53738261  0.85881617     0.09100
H83         H  0.43114101  0.44291674  0.83498452     0.13600
H84         H  0.42638623  0.54989391  0.90083593    -0.00600
H85         H  0.35542057  0.44595572  0.91486411     0.13900
H86         H  0.33850888  0.51056410  0.82133911     0.13700
C87         C  0.38392213  0.54541581  0.14706111     0.85500
C88         C  0.42660595  0.54455861  0.15289522    -0.54700
C89         C  0.44305807  0.51338177  0.13577732     0.08400
C90         C  0.41564555  0.48516982  0.11453298     0.19400
C91         C  0.37848826  0.54291897  0.10316639    -0.55400
C92         C  0.39491058  0.51167195  0.08555593     0.08600
C93         C  0.37061315  0.50527745  0.16170651    -0.55000
C94         C  0.38641417  0.47360340  0.14463494     0.09100
H95         H  0.44348687  0.56688459  0.16734427     0.13600
H96         H  0.43007633  0.46005644  0.10157610    -0.00600
H97         H  0.36279530  0.56464125  0.08743232     0.13900
H98         H  0.34963390  0.50212488  0.18343905     0.13700
C99         C  0.65494269  0.46429706  0.84319258     0.85500
C100        C  0.66590381  0.46931268  0.88605203    -0.54700
C101        C  0.65066478  0.50072080  0.90398342     0.08400
C102        C  0.62499468  0.52464020  0.87716798     0.19400
C103        C  0.61204906  0.46246191  0.84433429    -0.55400
C104        C  0.59620237  0.49422863  0.86166399     0.08600
C105        C  0.66452811  0.50379305  0.82524122    -0.55000
C106        C  0.64825431  0.53543061  0.84179580     0.09100
H107        H  0.68185750  0.44792767  0.90198935     0.13600
H108        H  0.61234021  0.55028525  0.89120091    -0.00600
H109        H  0.59541683  0.43781205  0.83359127     0.13900
H110        H  0.68323499  0.50630015  0.80136377     0.13700
C111        C  0.66540732  0.48327446  0.13473189     0.85500
C112        C  0.62277136  0.48187931  0.13955788    -0.54700
C113        C  0.60365234  0.51018481  0.12038800     0.08400
C114        C  0.62924956  0.53729014  0.09697386     0.19400
C115        C  0.66928182  0.48036777  0.09108160    -0.55400
C116        C  0.65078907  0.50844397  0.07100283     0.08600
C117        C  0.67695926  0.52511592  0.14570230    -0.55000
C118        C  0.65806593  0.55384434  0.12694920     0.09100
H119        H  0.60827703  0.45940241  0.15547468     0.13600
H120        H  0.61384480  0.56017466  0.08140174    -0.00600
H121        H  0.68362387  0.45680849  0.07682271     0.13900
H122        H  0.69788811  0.53140480  0.16793217     0.13700
C123        C  0.53445129  0.84307346  0.36629660     0.85500
C124        C  0.53144225  0.88751868  0.36013390    -0.54700
C125        C  0.50110478  0.90513343  0.37560994     0.08400
C126        C  0.47570318  0.87504473  0.39619573     0.19400
C127        C  0.53183684  0.83759319  0.40977361    -0.55400
C128        C  0.50142529  0.85400867  0.42571738     0.08600
C129        C  0.49697505  0.82641837  0.35068723    -0.55000
C130        C  0.46602759  0.84314224  0.36550584     0.09100
H131        H  0.55244648  0.90377103  0.34470567     0.13600
H132        H  0.45077080  0.88801098  0.40844244    -0.00600
H133        H  0.55249314  0.82213394  0.42669618     0.13900
H134        H  0.49398292  0.80298373  0.32985973     0.13700
C135        C  0.54648294  0.13523378  0.35357175     0.85500
C136        C  0.54026910  0.14187032  0.39690531    -0.54700
C137        C  0.50741146  0.12731896  0.40982749     0.08400
C138        C  0.48275468  0.10747596  0.37807913     0.19400
C139        C  0.54102289  0.09047162  0.34846440    -0.55400
C140        C  0.50766457  0.07556222  0.36064918     0.08600
C141        C  0.51187471  0.15330714  0.33430013    -0.55000
C142        C  0.47842847  0.13885408  0.34632169     0.09100
H143        H  0.55996416  0.15524093  0.41704268     0.13600
H144        H  0.45586237  0.09619391  0.38878859    -0.00600
H145        H  0.56268400  0.07199655  0.33742814     0.13900
H146        H  0.51379895  0.17552171  0.31231267     0.13700
C147        C  0.44614751  0.84232846  0.65090554     0.85500
C148        C  0.44976717  0.88640208  0.65981498    -0.54700
C149        C  0.47931759  0.90495210  0.64378583     0.08400
C150        C  0.50457061  0.87682620  0.62165900     0.19400
C151        C  0.44803965  0.83882725  0.60682197    -0.55400
C152        C  0.47837931  0.85702220  0.59112317     0.08600
C153        C  0.48356587  0.82634998  0.66551594    -0.55000
C154        C  0.51412441  0.84406274  0.65050464     0.09100
H155        H  0.42915227  0.90235653  0.67574779     0.13600
H156        H  0.52948499  0.89138952  0.60979859    -0.00600
H157        H  0.42684491  0.82354336  0.58952672     0.13900
H158        H  0.48677731  0.80386406  0.68687728     0.13700
C159        C  0.45360430  0.14082118  0.63521136     0.85500
C160        C  0.45767231  0.14564995  0.59159704    -0.54700
C161        C  0.48449720  0.12323908  0.57534832     0.08400
C162        C  0.50612286  0.09857131  0.60531228     0.19400
C163        C  0.44909599  0.09639850  0.64145788    -0.55400
C164        C  0.47615595  0.07412308  0.62562004     0.08600
C165        C  0.49283191  0.15029657  0.65139068    -0.55000
C166        C  0.52000549  0.12792837  0.63641799     0.09100
H167        H  0.44002849  0.16484019  0.57484671     0.13600
H168        H  0.52883863  0.08100068  0.59326577    -0.00600
H169        H  0.42669523  0.08378011  0.65793494     0.13900
H170        H  0.49996215  0.17256487  0.67261235     0.13700
O171        O  0.29510397  0.21289530  0.68538078    -0.81900
O172        O  0.16153919  0.26843393  0.77248189    -0.66500
O173        O  0.25300008  0.26981292  0.71906369    -1.13100
C174        C  0.30058303  0.23015052  0.83962958     1.05000
O175        O  0.18965718  0.30658495  0.81621847    -0.79800
O176        O  0.26293772  0.31950514  0.82407165    -0.67300
Ni177      Ni  0.25709092  0.24796968  0.66957195     1.34900
C178        C  0.28906643  0.32663578  0.80123762     0.83800
O179        O  0.17841046  0.28509325  0.69958353    -0.80300
O180        O  0.21901439  0.28161017  0.65126572    -0.90600
C181        C  0.16012827  0.29383939  0.79942013     0.83300
O182        O  0.22253016  0.20530760  0.67317783    -0.68800
O183        O  0.27201375  0.24659477  0.85330739    -0.88100
C184        C  0.20258187  0.19210584  0.69978722     0.84200
C185        C  0.18801277  0.29141009  0.66515361     1.05700
H186        H  0.22896197  0.22253772  0.79046300     0.37500
O187        O  0.23562470  0.24957163  0.78567389    -1.10700
O188        O  0.29843350  0.30217673  0.77533761    -0.67400
Ni189      Ni  0.28205484  0.24927846  0.76046553     1.26300
O190        O  0.19521157  0.21255563  0.72953555    -0.67600
O191        O  0.30835877  0.22898523  0.80404447    -0.79900
C192        C  0.32603289  0.22252999  0.70110235     0.83600
O193        O  0.32666567  0.24481125  0.73073577    -0.67100
Ni194      Ni  0.23115607  0.27580068  0.83315002     1.27400
Ni195      Ni  0.20629452  0.26718444  0.74347770     1.26100
H196        H  0.25933331  0.29728765  0.71661543     0.38100
O197        O  0.23119389  0.83590476  0.31899800    -0.81900
O198        O  0.31091398  0.70380592  0.23382304    -0.66500
O199        O  0.23999258  0.78151542  0.25987486    -1.13100
C200        C  0.20032954  0.68575503  0.34836908     1.05000
O201        O  0.26638065  0.65882268  0.23093313    -0.79800
O202        O  0.19635468  0.67048008  0.25222916    -0.67300
Ni203      Ni  0.25372708  0.83462640  0.26950968     1.34900
C204        C  0.17525613  0.69962910  0.24840870     0.83800
O205        O  0.29437153  0.77498669  0.20548799    -0.80300
O206        O  0.27680585  0.83661419  0.22061457    -0.90600
C207        C  0.29933221  0.66984994  0.22343562     0.83300
O208        O  0.30071334  0.82762727  0.29410242    -0.68800
O209        O  0.21719318  0.66102373  0.32764396    -0.88100
C210        C  0.32287212  0.79925746  0.29553930     0.84200
C211        C  0.29183188  0.81155710  0.19862190     1.05700
H212        H  0.27404478  0.71590663  0.30955035     0.37500
O213        O  0.25618999  0.71571064  0.28846008    -1.10700
O214        O  0.18121518  0.73253618  0.26500239    -0.67400
Ni215      Ni  0.21881011  0.75282010  0.30052718     1.26300
O216        O  0.31566383  0.76573448  0.28044738    -0.67600
O217        O  0.19859959  0.72219508  0.34078977    -0.79900
C218        C  0.19745868  0.82653350  0.32438594     0.83600
O219        O  0.18459635  0.79355088  0.31264814    -0.67100
Ni220      Ni  0.24203816  0.66234041  0.27951923     1.27400
Ni221      Ni  0.27655311  0.74433244  0.24695483     1.26100
H222        H  0.22229831  0.78202559  0.23867752     0.38100
O223        O  0.70524100  0.32564967  0.20906920    -0.81900
O224        O  0.77751578  0.17067331  0.26713667    -0.66500
O225        O  0.73795959  0.27352928  0.26034483    -1.13100
C226        C  0.85819157  0.30262867  0.20844433     1.05000
O227        O  0.82895608  0.19547244  0.29363358    -0.79800
O228        O  0.84795055  0.27108577  0.29721933    -0.67300
Ni229      Ni  0.68938471  0.28209345  0.23945909     1.34900
C230        C  0.82795073  0.29983330  0.30617995     0.83800
O231        O  0.71234044  0.19976991  0.28748089    -0.80300
O232        O  0.66730947  0.24011932  0.26821432    -0.90600
C233        C  0.80594181  0.16706121  0.28885576     0.83300
O234        O  0.69450376  0.24937996  0.19572135    -0.68800
O235        O  0.86810143  0.26990576  0.22238707    -0.88100
C236        C  0.71410718  0.21993772  0.18806847     0.84200
C237        C  0.67838756  0.21004914  0.28617639     1.05700
H238        H  0.79789624  0.23397412  0.21130029     0.37500
O239        O  0.79794522  0.24343298  0.23750345    -1.10700
O240        O  0.80066095  0.31119223  0.28553134    -0.67400
Ni241      Ni  0.78094471  0.29582328  0.23562914     1.26300
O242        O  0.73647402  0.20493543  0.21248781    -0.67600
O243        O  0.82545419  0.31641570  0.21161367    -0.79900
C244        C  0.72909183  0.35289779  0.21550447     0.83600
O245        O  0.76021815  0.34695023  0.23210818    -0.67100
Ni246      Ni  0.84634059  0.23308372  0.25706123     1.27400
Ni247      Ni  0.75572768  0.22112294  0.26257457     1.26100
H248        H  0.73751779  0.28329756  0.28642847     0.38100
O249        O  0.78310604  0.24047766  0.66542557    -0.81900
O250        O  0.69792639  0.17860301  0.79812214    -0.66500
O251        O  0.72657499  0.24308098  0.71459719    -1.13100
C252        C  0.81841667  0.28709216  0.80758979     1.05000
O253        O  0.69545263  0.23610034  0.82569528    -0.79800
O254        O  0.72979575  0.30469869  0.81778579    -0.67300
Ni255      Ni  0.73274346  0.22301303  0.66474805     1.34900
C256        C  0.72751007  0.32454171  0.78752188     0.83800
O257        O  0.67273572  0.18331728  0.72351963    -0.80300
O258        O  0.68272896  0.20383485  0.66340103    -0.90600
C259        C  0.68879418  0.19962197  0.82678725     0.83300
O260        O  0.75004264  0.17219625  0.67595479    -0.68800
O261        O  0.79633098  0.27296213  0.83250283    -0.88100
C262        C  0.75704383  0.15430629  0.70676008     0.84200
C263        C  0.66365188  0.18498525  0.68770340     1.05700
H264        H  0.77326753  0.21438284  0.78397020     0.37500
O265        O  0.75379818  0.23325510  0.78062359    -1.10700
O266        O  0.73854221  0.31201321  0.75515598    -0.67400
Ni267      Ni  0.76868377  0.26699292  0.74128437     1.26300
O268        O  0.74602371  0.16600466  0.73944471    -0.67600
O269        O  0.81038482  0.28845712  0.77142662    -0.79900
C270        C  0.79025914  0.27678588  0.66688258     0.83600
O271        O  0.78382205  0.29612903  0.69734649    -0.67100
Ni272      Ni  0.74586754  0.25378159  0.82951762     1.27400
Ni273      Ni  0.71271227  0.20800256  0.75372344     1.26100
H274        H  0.70725482  0.26231979  0.71253928     0.38100
C275        C  0.63345865  0.84613080  0.96700409     0.85500
C276        C  0.59117831  0.84040581  0.96643349    -0.54700
C277        C  0.57395973  0.86080726  0.99458647     0.08400
C278        C  0.60065703  0.88435361  0.02143961     0.19400
C279        C  0.64078350  0.89051901  0.96727587    -0.55400
C280        C  0.62382154  0.91101804  0.99578452     0.08600
C281        C  0.64497162  0.83358989  0.00784177    -0.55000
C282        C  0.62847277  0.85437353  0.03600620     0.09100
H283        H  0.57652801  0.82056528  0.94661087     0.13600
H284        H  0.58561653  0.89980745  0.04404542    -0.00600
H285        H  0.66018848  0.90374687  0.94763976     0.13900
H286        H  0.66527197  0.81187195  0.01546146     0.13700
C287        C  0.67049890  0.13873790  0.04695873     0.85500
C288        C  0.62797649  0.14478458  0.04828242    -0.54700
C289        C  0.60849811  0.12826836  0.01818939     0.08400
C290        C  0.63255732  0.10718970  0.98927611     0.19400
C291        C  0.67366898  0.09406548  0.04397931    -0.55400
C292        C  0.65463651  0.07762177  0.01344902     0.08600
C293        C  0.68169474  0.15376404  0.00740981    -0.55000
C294        C  0.66055230  0.13898660  0.97726947     0.09100
H295        H  0.61448796  0.16129452  0.07068743     0.13600
H296        H  0.61579009  0.09372560  0.96538714    -0.00600
H297        H  0.68644853  0.07591842  0.06550800     0.13900
H298        H  0.70338220  0.17583532  0.00402542     0.13700
C299        C  0.35957888  0.87284715  0.06136315     0.85500
C300        C  0.39931864  0.85756877  0.05890783    -0.54700
C301        C  0.41881595  0.87168023  0.02881561     0.08400
C302        C  0.39602745  0.89867115  0.00270073     0.19400
C303        C  0.36298691  0.91801533  0.05956240    -0.55400
C304        C  0.38294328  0.93166114  0.02931505     0.08600
C305        C  0.34152063  0.86173341  0.02214021    -0.55000
C306        C  0.36081516  0.87495894  0.99166419     0.09100
H307        H  0.41038435  0.83646245  0.07899044     0.13600
H308        H  0.41134723  0.90951957  0.97766294    -0.00600
H309        H  0.34983425  0.93727767  0.07994013     0.13900
H310        H  0.31557502  0.84578868  0.01756443     0.13700
C311        C  0.39139464  0.15724094  0.95785681     0.85500
C312        C  0.43430301  0.16210663  0.95843661    -0.54700
C313        C  0.45118960  0.14725865  0.99062632     0.08400
C314        C  0.42393224  0.12823516  0.01849382     0.19400
C315        C  0.38548424  0.11288374  0.96232430    -0.55400
C316        C  0.40291026  0.09708425  0.99355066     0.08600
C317        C  0.37933199  0.17555339  0.99565299    -0.55000
C318        C  0.39587159  0.16044591  0.02734028     0.09100
H319        H  0.45047870  0.17327904  0.93504896     0.13600
H320        H  0.43777830  0.11682292  0.04468235    -0.00600
H321        H  0.36831008  0.09571261  0.94232797     0.13900
H322        H  0.35792326  0.19756664  0.99726467     0.13700
O323        O  0.26827812  0.67106316  0.82242988    -0.81900
O324        O  0.18344402  0.79902341  0.73290355    -0.66500
O325        O  0.25424187  0.72078954  0.76194957    -1.13100
C326        C  0.30131497  0.82165566  0.84559385     1.05000
O327        O  0.22980556  0.84178865  0.72828409    -0.79800
O328        O  0.29981378  0.83145628  0.75000211    -0.67300
Ni329      Ni  0.24074009  0.66899156  0.77487402     1.34900
C330        C  0.31918581  0.80137765  0.74405897     0.83800
O331        O  0.19714843  0.72450171  0.70812937    -0.80300
O332        O  0.21243763  0.66405428  0.72790926    -0.90600
C333        C  0.19639297  0.83158892  0.72068755     0.83300
O334        O  0.19724461  0.67919835  0.80237705    -0.68800
O335        O  0.28225290  0.84513303  0.82517661    -0.88100
C336        C  0.17393561  0.70643166  0.80109257     0.84200
C337        C  0.19769063  0.68718678  0.70363999     1.05700
H338        H  0.22472874  0.78943178  0.80984148     0.37500
O339        O  0.24105626  0.78844259  0.78823223    -1.10700
O340        O  0.31329245  0.76908786  0.76094302    -0.67400
Ni341      Ni  0.27958320  0.75187878  0.80004845     1.26300
O342        O  0.17888158  0.73819597  0.78241197    -0.67600
O343        O  0.30392605  0.78508596  0.83809634    -0.79900
C344        C  0.30280355  0.67877499  0.82437446     0.83600
O345        O  0.31489705  0.71135178  0.81177808    -0.67100
Ni346      Ni  0.25545683  0.84112667  0.77717583     1.27400
Ni347      Ni  0.21735290  0.75772070  0.74814632     1.26100
H348        H  0.27011490  0.71816932  0.74011230     0.38100
C349        C  0.85071119  0.02757049  0.65442353     0.85500
C350        C  0.89331860  0.03020562  0.66203500    -0.54700
C351        C  0.91281430  0.00019954  0.64580012     0.08400
C352        C  0.88801810  0.97103043  0.62232884     0.19400
C353        C  0.84758773  0.02607506  0.61030538    -0.55400
C354        C  0.86752755  0.99717070  0.59323131     0.08600
C355        C  0.83984013  0.98640348  0.66769745    -0.55000
C356        C  0.85866528  0.95688623  0.65083915     0.09100
H357        H  0.90762601  0.05424026  0.67673360     0.13600
H358        H  0.90340430  0.94673475  0.60886228    -0.00600
H359        H  0.83172115  0.04715142  0.59388107     0.13900
H360        H  0.81791847  0.98089726  0.68799364     0.13700
C361        C  0.13289672  0.04079791  0.65755069     0.85500
C362        C  0.14023098  0.03809795  0.61429865    -0.54700
C363        C  0.12464603  0.00631342  0.59555104     0.08400
C364        C  0.10278827  0.97892836  0.62266423     0.19400
C365        C  0.09024650  0.03877228  0.65843735    -0.55400
C366        C  0.07425526  0.00626276  0.64139103     0.08600
C367        C  0.14606023  0.00135888  0.67348642    -0.55000
C368        C  0.13048371  0.96893748  0.65559963     0.09100
H369        H  0.15497804  0.06098774  0.59907344     0.13600
H370        H  0.09014162  0.95258104  0.60845461    -0.00600
H371        H  0.07319221  0.06212858  0.66895871     0.13900
H372        H  0.16653115  0.99928439  0.69667096     0.13700
C373        C  0.85453567  0.02393188  0.36494009     0.85500
C374        C  0.84953034  0.02138171  0.40845308    -0.54700
C375        C  0.86704576  0.99082474  0.42597362     0.08400
C376        C  0.88665512  0.96367036  0.39713448     0.19400
C377        C  0.89653016  0.02216049  0.35898450    -0.55400
C378        C  0.91346498  0.99107087  0.37569244     0.08600
C379        C  0.84023762  0.98402147  0.34952063    -0.55000
C380        C  0.85626932  0.95248158  0.36664293     0.09100
H381        H  0.83446275  0.04328862  0.42440300     0.13600
H382        H  0.90074534  0.93835617  0.41041313    -0.00600
H383        H  0.91191225  0.04450928  0.34366577     0.13900
H384        H  0.81947914  0.97975083  0.32695701     0.13700
C385        C  0.13286521  0.03712752  0.36331873     0.85500
C386        C  0.09009504  0.03495952  0.35957743    -0.54700
C387        C  0.07362282  0.00595217  0.38067294     0.08400
C388        C  0.10159425  0.98096449  0.40325645     0.19400
C389        C  0.14100997  0.03973500  0.40708699    -0.55400
C390        C  0.12413488  0.01081893  0.42808919     0.08600
C391        C  0.14521457  0.99515295  0.35295060    -0.55000
C392        C  0.12864198  0.96615113  0.37323357     0.09100
H393        H  0.07420870  0.05483031  0.34175272     0.13600
H394        H  0.08855429  0.95686350  0.41966615    -0.00600
H395        H  0.15803544  0.06287390  0.42036080     0.13900
H396        H  0.16657197  0.98775829  0.33292233     0.13700
O397        O  0.81206862  0.72053950  0.16904657    -0.81900
O398        O  0.67412592  0.77070372  0.26470284    -0.66500
O399        O  0.76837439  0.77084903  0.21491551    -1.13100
C400        C  0.80264416  0.69538032  0.32243488     1.05000
O401        O  0.70170525  0.78750998  0.31945710    -0.79800
O402        O  0.77499182  0.78828828  0.33141673    -0.67300
Ni403      Ni  0.77248048  0.75761564  0.16200662     1.34900
C404        C  0.80073019  0.80155975  0.31068155     0.83800
O405        O  0.69835293  0.80347661  0.20074613    -0.80300
O406        O  0.73417143  0.79365571  0.14947934    -0.90600
C407        C  0.67238791  0.78407842  0.29877768     0.83300
O408        O  0.73747765  0.71505727  0.16028302    -0.68800
O409        O  0.77404221  0.70905437  0.33837913    -0.88100
C410        C  0.71013289  0.70536323  0.18075294     0.84200
C411        C  0.70648914  0.80883890  0.16592499     1.05700
H412        H  0.73423458  0.71086917  0.27015896     0.37500
O413        O  0.74393381  0.73714468  0.27395352    -1.10700
O414        O  0.81014476  0.78504330  0.27936392    -0.67400
Ni415      Ni  0.79197063  0.73818469  0.25176361     1.26300
O416        O  0.70100990  0.72449462  0.21054883    -0.67600
O417        O  0.81368841  0.70510151  0.28946470    -0.79900
C418        C  0.83981112  0.72080665  0.19226556     0.83600
O419        O  0.83818163  0.73665245  0.22539097    -0.67100
Ni420      Ni  0.73845156  0.74787541  0.32682220     1.27400
Ni421      Ni  0.72038266  0.77032199  0.23795152     1.26100
H422        H  0.77843486  0.79716167  0.21777965     0.38100
C423        C  0.96693819  0.65385421  0.85874402     0.85500
C424        C  0.96645423  0.60852058  0.85823804    -0.54700
C425        C  0.99641486  0.59173549  0.87589010     0.08400
C426        C  0.02399497  0.62203834  0.89399628     0.19400
C427        C  0.97104276  0.66469509  0.90185944    -0.55400
C428        C  0.99919757  0.64632126  0.92116812     0.08600
C429        C  0.00440417  0.66615444  0.84293638    -0.55000
C430        C  0.03448124  0.65002728  0.86070007     0.09100
H431        H  0.94404297  0.59107091  0.84506328     0.13600
H432        H  0.04819795  0.60809260  0.90817843    -0.00600
H433        H  0.95326104  0.68443606  0.91683782     0.13900
H434        H  0.00697537  0.68661766  0.81942081     0.13700
C435        C  0.04603171  0.65504210  0.15319538     0.85500
C436        C  0.04430981  0.61022588  0.15568926    -0.54700
C437        C  0.01542131  0.59251606  0.13610667     0.08400
C438        C  0.99003545  0.62191626  0.11515952     0.19400
C439        C  0.04579330  0.66280630  0.10941375    -0.55400
C440        C  0.01731952  0.64436574  0.08909749     0.08600
C441        C  0.00805325  0.66922222  0.16552218    -0.55000
C442        C  0.97865293  0.65251086  0.14604997     0.09100
H443        H  0.06570693  0.59352286  0.17031851     0.13600
H444        H  0.96623281  0.60749323  0.09963171    -0.00600
H445        H  0.06548096  0.68152501  0.09515608     0.13900
H446        H  0.00466374  0.69164633  0.18746453     0.13700
C447        C  0.95775549  0.36062975  0.86667569     0.85500
C448        C  0.96530645  0.35649702  0.91046658    -0.54700
C449        C  0.99868063  0.37199203  0.92359710     0.08400
C450        C  0.02171208  0.39057054  0.89112037     0.19400
C451        C  0.96185155  0.40494041  0.86073036    -0.55400
C452        C  0.99520544  0.42098430  0.87252527     0.08600
C453        C  0.99143753  0.34256461  0.84810005    -0.55000
C454        C  0.02496051  0.35684629  0.86111637     0.09100
H455        H  0.94553517  0.34397748  0.93011046     0.13600
H456        H  0.04892945  0.40303551  0.90109862    -0.00600
H457        H  0.93917109  0.42292082  0.85050838     0.13900
H458        H  0.98876862  0.31963303  0.82634154     0.13700
C459        C  0.06296993  0.36340565  0.15020206     0.85500
C460        C  0.05909614  0.35217069  0.10710733    -0.54700
C461        C  0.02805541  0.36659479  0.08892919     0.08400
C462        C  0.00364301  0.39137069  0.11528583     0.19400
C463        C  0.06091278  0.40895100  0.14951343    -0.55400
C464        C  0.03028677  0.42349232  0.13116043     0.08600
C465        C  0.02587766  0.35054049  0.16768156    -0.55000
C466        C  0.99488806  0.36511807  0.14979100     0.09100
H467        H  0.08016655  0.33629095  0.09181842     0.13600
H468        H  0.97859245  0.40309646  0.10052762    -0.00600
H469        H  0.08207691  0.42907149  0.16056771     0.13900
H470        H  0.02429141  0.33150505  0.19238611     0.13700
O471        O  0.29256808  0.34464644  0.22547289    -0.81900
O472        O  0.20329843  0.19602674  0.27490194    -0.66500
O473        O  0.27822560  0.27715549  0.26901520    -1.13100
C474        C  0.32306304  0.19803913  0.16811460     1.05000
O475        O  0.24691429  0.15146203  0.27313809    -0.79800
O476        O  0.31878622  0.16774555  0.25985210    -0.67300
Ni477      Ni  0.26611454  0.33097046  0.27100892     1.34900
C478        C  0.34239787  0.19463490  0.26856026     0.83800
O479        O  0.21872726  0.25951631  0.31697491    -0.80300
O480        O  0.23805914  0.32264902  0.31671965    -0.90600
C481        C  0.21388871  0.16115583  0.28062977     0.83300
O482        O  0.22199836  0.32836218  0.24032365    -0.68800
O483        O  0.30387371  0.17072580  0.18311363    -0.88100
C484        C  0.19746333  0.30251671  0.23200412     0.84200
C485        C  0.22016959  0.29391283  0.33113827     1.05700
H486        H  0.24594004  0.22119609  0.20559434     0.37500
O487        O  0.26243959  0.21771137  0.22746973    -1.10700
O488        O  0.33840376  0.22999766  0.25718629    -0.67400
Ni489      Ni  0.30154442  0.25656578  0.22454654     1.26300
O490        O  0.20178533  0.26630929  0.24055566    -0.67600
O491        O  0.32351991  0.23339402  0.18047795    -0.79900
C492        C  0.32419109  0.33458623  0.21357618     0.83600
O493        O  0.33646173  0.30027182  0.22000845    -0.67100
Ni494      Ni  0.27502955  0.16383123  0.22812467     1.27400
Ni495      Ni  0.23922806  0.23834379  0.27174992     1.26100
H496        H  0.29461945  0.27306600  0.29085028     0.38100
C497        C  0.09746425  0.34600151  0.17181198    -0.07100
C498        C  0.12029444  0.37033610  0.19554982    -0.18200
C499        C  0.15165623  0.35688712  0.21539804     0.10100
C500        C  0.16233044  0.31696361  0.21240711    -0.07000
C501        C  0.13861634  0.29158912  0.19067060    -0.18200
C502        C  0.10634771  0.30536901  0.17099611     0.10100
S503        S  0.17525461  0.39338707  0.24544484    -0.33200
S504        S  0.07616349  0.27025325  0.14613132    -0.33200
H505        H  0.09913804  0.23758263  0.15046190     0.28100
H506        H  0.17944656  0.36868674  0.27696384     0.28100
H507        H  0.11330785  0.40030914  0.20110642     0.18700
H508        H  0.14538941  0.26084530  0.18907321     0.18700
C509        C  0.02230085  0.36590155  0.04640847    -0.07100
C510        C  0.02621130  0.40144455  0.02705992    -0.18200
C511        C  0.02117281  0.40396788  0.98711986     0.10100
C512        C  0.01007617  0.37030643  0.96543336    -0.07000
C513        C  0.00639678  0.33442756  0.98495978    -0.18200
C514        C  0.01261520  0.33178925  0.02491449     0.10100
S515        S  0.02857671  0.45086706  0.96520701    -0.33200
S516        S  0.00655253  0.28436911  0.04660948    -0.33200
H517        H  0.99919087  0.29759144  0.08389065     0.28100
H518        H  0.02941478  0.47376976  0.99899363     0.28100
H519        H  0.03331576  0.42760775  0.04348707     0.18700
H520        H  0.99806671  0.30822477  0.96896607     0.18700
C521        C  0.01538456  0.54913710  0.12965085    -0.07100
C522        C  0.04756696  0.53271711  0.11460949    -0.18200
C523        C  0.05249523  0.49213701  0.11279829     0.10100
C524        C  0.02441402  0.46650775  0.12642275    -0.07000
C525        C  0.99103144  0.48279430  0.13891026    -0.18200
C526        C  0.98646838  0.52369190  0.14117220     0.10100
S527        S  0.09570595  0.47587616  0.09304283    -0.33200
S528        S  0.94443854  0.54160657  0.16155120    -0.33200
H529        H  0.96233657  0.57186707  0.18276571     0.28100
H530        H  0.08428091  0.43763344  0.08297115     0.28100
H531        H  0.06968759  0.55193737  0.10497192     0.18700
H532        H  0.96923124  0.46360919  0.14923982     0.18700
C533        C  0.99992106  0.54814571  0.87862598    -0.07100
C534        C  0.02431456  0.52826107  0.85454311    -0.18200
C535        C  0.02410013  0.48694752  0.85197062     0.10100
C536        C  0.99974252  0.46467156  0.87488415    -0.07000
C537        C  0.97595917  0.48474853  0.89932335    -0.18200
C538        C  0.97624845  0.52578816  0.90195466     0.10100
S539        S  0.05336310  0.46508589  0.81676503    -0.33200
S540        S  0.94682916  0.54908391  0.93609507    -0.33200
H541        H  0.92858865  0.51504388  0.94891572     0.28100
H542        H  0.03098336  0.43155154  0.80970506     0.28100
H543        H  0.04245208  0.54498471  0.83627030     0.18700
H544        H  0.95717595  0.46784538  0.91679436     0.18700
C545        C  0.00273341  0.64620265  0.96442033    -0.07100
C546        C  0.03848737  0.64395688  0.98123042    -0.18200
C547        C  0.04423413  0.64205348  0.02127830     0.10100
C548        C  0.01358495  0.64492471  0.04603274    -0.07000
C549        C  0.97793608  0.64668861  0.02938219    -0.18200
C550        C  0.97183598  0.64662310  0.98955885     0.10100
S551        S  0.09050457  0.63224085  0.03961758    -0.33200
S552        S  0.92326697  0.64573460  0.97494286    -0.33200
H553        H  0.92645695  0.62443529  0.94081812     0.28100
H554        H  0.10756332  0.62704465  0.00406453     0.28100
H555        H  0.06227460  0.64335792  0.96285663     0.18700
H556        H  0.95406276  0.64750899  0.04767517     0.18700
C557        C  0.87411715  0.70104716  0.17986514    -0.07100
C558        C  0.89052323  0.71305291  0.14565669    -0.18200
C559        C  0.92375473  0.69672901  0.13312767     0.10100
C560        C  0.94042860  0.66612179  0.15408647    -0.07000
C561        C  0.92340668  0.65338883  0.18775503    -0.18200
C562        C  0.89031738  0.66995916  0.20045534     0.10100
S563        S  0.94461496  0.71822400  0.09166986    -0.33200
S564        S  0.86965280  0.64932924  0.24244204    -0.33200
H565        H  0.83265618  0.65472995  0.23010156     0.28100
H566        H  0.98111213  0.71861637  0.10671636     0.28100
H567        H  0.87820145  0.73662869  0.12940666     0.18700
H568        H  0.93638616  0.63085890  0.20480049     0.18700
C569        C  0.18888841  0.13099729  0.29790397    -0.07100
C570        C  0.16602102  0.14061539  0.32859796    -0.18200
C571        C  0.14614925  0.11137556  0.34866706     0.10100
C572        C  0.15058265  0.07089273  0.33947395    -0.07000
C573        C  0.17099205  0.06242031  0.30624726    -0.18200
C574        C  0.18953275  0.09150620  0.28562015     0.10100
S575        S  0.11440723  0.12672772  0.38497033    -0.33200
S576        S  0.21239887  0.07626585  0.24250524    -0.33200
H577        H  0.20457700  0.11059495  0.22200455     0.28100
H578        H  0.11965458  0.16740034  0.38091159     0.28100
H579        H  0.16432300  0.17105811  0.33732703     0.18700
H580        H  0.17184188  0.03323796  0.29442262     0.18700
C581        C  0.84342692  0.91207962  0.35627552    -0.07100
C582        C  0.86849524  0.88521165  0.34093633    -0.18200
C583        C  0.85589943  0.84935550  0.32440240     0.10100
C584        C  0.81748474  0.83972585  0.32388413    -0.07000
C585        C  0.79290779  0.86657412  0.34000926    -0.18200
C586        C  0.80519240  0.90195753  0.35639328     0.10100
S587        S  0.89001355  0.81690836  0.30561246    -0.33200
S588        S  0.76997518  0.93257627  0.37686251    -0.33200
H589        H  0.79312658  0.95362817  0.40284271     0.28100
H590        H  0.87297225  0.81450774  0.26900793     0.28100
H591        H  0.89781522  0.89286665  0.34044623     0.18700
H592        H  0.76337290  0.85979803  0.34011916     0.18700
C593        C  0.95445490  0.98768667  0.37596621    -0.07100
C594        C  0.97328531  0.98813040  0.41144717    -0.18200
C595        C  0.01197525  0.99377249  0.41400477     0.10100
C596        C  0.03261079  0.99842950  0.38014406    -0.07000
C597        C  0.01366960  0.99629853  0.34453819    -0.18200
C598        C  0.97509994  0.99055022  0.34207925     0.10100
S599        S  0.03347285  0.99804026  0.46093899    -0.33200
S600        S  0.95381814  0.98701550  0.29485020    -0.33200
H601        H  0.92324498  0.96373969  0.30565167     0.28100
H602        H  0.00078748  0.00486686  0.48116344     0.28100
H603        H  0.95731265  0.98617929  0.43735124     0.18700
H604        H  0.02911012  0.99893216  0.31832767     0.18700
C605        C  0.12328192  0.00504670  0.55251477    -0.07100
C606        C  0.11387057  0.03967955  0.53338959    -0.18200
C607        C  0.11405156  0.04235682  0.49347289     0.10100
C608        C  0.12447322  0.00975582  0.47101482    -0.07000
C609        C  0.13271691  0.97449769  0.48987376    -0.18200
C610        C  0.13230232  0.97181608  0.53031988     0.10100
S611        S  0.09795136  0.08761558  0.47347439    -0.33200
S612        S  0.14499782  0.92664929  0.55318735    -0.33200
H613        H  0.14993594  0.90469947  0.51937695     0.28100
H614        H  0.07855062  0.07014035  0.44219273     0.28100
H615        H  0.10551085  0.06504067  0.54984975     0.18700
H616        H  0.13996709  0.94918324  0.47281930     0.18700
C617        C  0.87199072  0.99449903  0.55067529    -0.07100
C618        C  0.86730278  0.95816324  0.53166821    -0.18200
C619        C  0.86638226  0.95525047  0.49128942     0.10100
C620        C  0.87070206  0.98952127  0.46898022    -0.07000
C621        C  0.87836754  0.02519958  0.48838798    -0.18200
C622        C  0.87958644  0.02800395  0.52839382     0.10100
S623        S  0.85787449  0.90725027  0.47075050    -0.33200
S624        S  0.89279138  0.07508616  0.54891566    -0.33200
H625        H  0.91255471  0.05966202  0.58037767     0.28100
H626        H  0.83512192  0.92020584  0.44060092     0.28100
H627        H  0.86274214  0.93198809  0.54829281     0.18700
H628        H  0.88393509  0.05146322  0.47212951     0.18700
C629        C  0.03306752  0.99984460  0.64232921    -0.07100
C630        C  0.01528255  0.00697913  0.67717858    -0.18200
C631        C  0.97654362  0.00627617  0.67983241     0.10100
C632        C  0.95426797  0.99832122  0.64658212    -0.07000
C633        C  0.97205509  0.98968876  0.61204472    -0.18200
C634        C  0.01099747  0.99028870  0.60952189     0.10100
S635        S  0.95825786  0.01588618  0.72675674    -0.33200
S636        S  0.03148647  0.98216904  0.56350011    -0.33200
H637        H  0.99899358  0.96851712  0.54425450     0.28100
H638        H  0.92469726  0.99509085  0.72142967     0.28100
H639        H  0.03190617  0.01362146  0.70278336     0.18700
H640        H  0.95530065  0.98426845  0.58634644     0.18700
C641        C  0.17408556  0.85913618  0.69664591    -0.07100
C642        C  0.13937354  0.87191409  0.70913099    -0.18200
C643        C  0.12289736  0.90577030  0.69372568     0.10100
C644        C  0.14183711  0.92832839  0.66621040    -0.07000
C645        C  0.17516962  0.91407063  0.65197412    -0.18200
C646        C  0.19076635  0.87941041  0.66592857     0.10100
S647        S  0.07882221  0.92042598  0.71188333    -0.33200
S648        S  0.23274588  0.86295920  0.64393468    -0.33200
H649        H  0.22656116  0.82296942  0.65154213     0.28100
H650        H  0.06429015  0.93006135  0.67554957     0.28100
H651        H  0.12600881  0.85684696  0.73243956     0.18700
H652        H  0.18973504  0.93065170  0.63044590     0.18700
C653        C  0.13758254  0.69685092  0.81803058    -0.07100
C654        C  0.11206062  0.67712425  0.79359778    -0.18200
C655        C  0.08074016  0.65783888  0.80766397     0.10100
C656        C  0.07257300  0.66022674  0.84716393    -0.07000
C657        C  0.09858811  0.67911599  0.87207289    -0.18200
C658        C  0.13138582  0.69660487  0.85799232     0.10100
S659        S  0.05359298  0.62867908  0.77363159    -0.33200
S660        S  0.16447457  0.71752113  0.89221832    -0.33200
H661        H  0.18133597  0.74370965  0.86675734     0.28100
H662        H  0.03787168  0.60345050  0.80059398     0.28100
H663        H  0.11786924  0.67454175  0.76328564     0.18700
H664        H  0.09295290  0.68108848  0.90241640     0.18700
C665        C  0.34587189  0.18798851  0.13451847    -0.07100
C666        C  0.35998165  0.21839996  0.11178136    -0.18200
C667        C  0.37942820  0.21035394  0.07840077     0.10100
C668        C  0.38357164  0.17107027  0.06622400    -0.07000
C669        C  0.37110540  0.14089349  0.08964934    -0.18200
C670        C  0.35377613  0.14866950  0.12415054     0.10100
S671        S  0.39850109  0.25136167  0.05282305    -0.33200
S672        S  0.34364667  0.10669170  0.15343030    -0.33200
H673        H  0.35767489  0.12457076  0.18743809     0.28100
H674        H  0.42894641  0.23055755  0.03936183     0.28100
H675        H  0.35571370  0.24873230  0.11979140     0.18700
H676        H  0.37372382  0.11083630  0.08053577     0.31500
C677        C  0.34843683  0.86610243  0.95191403    -0.07100
C678        C  0.36793848  0.83832974  0.93078631    -0.18200
C679        C  0.35433874  0.82461881  0.89511961     0.10100
C680        C  0.31979320  0.83795820  0.88074035    -0.07000
C681        C  0.30114135  0.86689153  0.90144110    -0.18200
C682        C  0.31513193  0.88118921  0.93659973     0.10100
S683        S  0.38275219  0.79119233  0.86892516    -0.33200
S684        S  0.28842649  0.91757779  0.96117740    -0.33200
H685        H  0.31873980  0.93604619  0.98027100     0.28100
H686        H  0.37521139  0.80901894  0.83347694     0.28100
H687        H  0.39339981  0.82646332  0.94256055     0.18700
H688        H  0.27481266  0.87773862  0.89070721     0.18700
C689        C  0.39018597  0.97405633  0.02115946    -0.07100
C690        C  0.39040390  0.98603138  0.98273123    -0.18200
C691        C  0.39838614  0.02481887  0.97285133     0.10100
C692        C  0.40178252  0.05410450  0.00194437    -0.07000
C693        C  0.40325724  0.04186869  0.04021581    -0.18200
C694        C  0.39868559  0.00251134  0.05000597     0.10100
S695        S  0.40827950  0.03332042  0.92308024    -0.33200
S696        S  0.40730218  0.99089037  0.09944758    -0.33200
H697        H  0.42823957  0.95797082  0.09016601     0.28100
H698        H  0.43551553  0.06258850  0.93077394     0.28100
H699        H  0.38519858  0.96495895  0.95977514     0.18700
H700        H  0.40892060  0.06265660  0.06309847     0.18700
C701        C  0.56826721  0.13319593  0.01191057    -0.07100
C702        C  0.55553516  0.16906748  0.99809665    -0.18200
C703        C  0.51774054  0.17496868  0.99045567     0.10100
C704        C  0.49197532  0.14390335  0.99642747    -0.07000
C705        C  0.50518009  0.10775308  0.00949112    -0.18200
C706        C  0.54289812  0.10217091  0.01749358     0.10100
S707        S  0.50497181  0.22294483  0.97400944    -0.33200
S708        S  0.55814421  0.05571069  0.03570881    -0.33200
H709        H  0.52332195  0.03637138  0.03432471     0.28100
H710        H  0.47025777  0.22343845  0.99128442     0.28100
H711        H  0.57518076  0.19277140  0.99337285     0.18700
H712        H  0.48581559  0.08359042  0.01332928     0.18700
C713        C  0.68193951  0.83198158  0.14160102    -0.07100
C714        C  0.69894969  0.85744079  0.11589325    -0.18200
C715        C  0.68053779  0.86817649  0.08226542     0.10100
C716        C  0.64399533  0.85400619  0.07506969    -0.07000
C717        C  0.62522269  0.83294423  0.10305116    -0.18200
C718        C  0.64402520  0.82150061  0.13653929     0.10100
S719        S  0.70511273  0.89673592  0.04711435    -0.33200
S720        S  0.62111656  0.78882304  0.16931672    -0.33200
H721        H  0.58514851  0.79212062  0.15322233     0.28100
H722        H  0.73903633  0.90057306  0.06765785     0.28100
H723        H  0.72792499  0.86561923  0.12042218     0.18700
H724        H  0.59723192  0.82223276  0.09693300     0.18700
C725        C  0.53374802  0.85797147  0.00196262    -0.07100
C726        C  0.52294665  0.85551747  0.04023331    -0.18200
C727        C  0.48602657  0.85958436  0.05034289     0.10100
C728        C  0.45822823  0.86265444  0.02115885    -0.07000
C729        C  0.46889394  0.86060827  0.98267814    -0.18200
C730        C  0.50614368  0.86021543  0.97279963     0.10100
S731        S  0.47800633  0.86508652  0.10081844    -0.33200
S732        S  0.51611297  0.86710101  0.92298365    -0.33200
H733        H  0.54392095  0.89572090  0.93069379     0.28100
H734        H  0.45787294  0.89944935  0.09551385     0.28100
H735        H  0.54373912  0.85281384  0.06290701     0.18700
H736        H  0.44829623  0.86179711  0.95974141     0.18700
C737        C  0.63096545  0.95399580  0.00226266    -0.07100
C738        C  0.64025132  0.97644852  0.97007779    -0.18200
C739        C  0.65209034  0.01531649  0.97363065     0.10100
C740        C  0.64967848  0.03470052  0.00914264    -0.07000
C741        C  0.64005712  0.01306870  0.04141145    -0.18200
C742        C  0.63212823  0.97287823  0.03898241     0.10100
S743        S  0.67451294  0.03623993  0.93295869    -0.33200
S744        S  0.62539688  0.94813335  0.08393003    -0.33200
H745        H  0.64113412  0.97727239  0.10836385     0.28100
H746        H  0.69665366  0.06350857  0.95401308     0.28100
H747        H  0.63991864  0.96342306  0.94166866     0.18700
H748        H  0.63822275  0.02797977  0.06883406     0.18700
C749        C  0.85480192  0.30382015  0.82183762    -0.07100
C750        C  0.87194847  0.33389848  0.80117746    -0.18200
C751        C  0.90547213  0.35167938  0.81385973     0.10100
C752        C  0.92142724  0.34177399  0.85025972    -0.07000
C753        C  0.90530230  0.30972955  0.86943302    -0.18200
C754        C  0.87282105  0.29052718  0.85565119     0.10100
S755        S  0.92630446  0.38543356  0.78073164    -0.33200
S756        S  0.85642474  0.24746750  0.88052558    -0.33200
H757        H  0.88778732  0.24268365  0.90466699     0.28100
H758        H  0.96219159  0.37029323  0.78410254     0.28100
H759        H  0.85939460  0.34338044  0.77438695     0.18700
H760        H  0.91880739  0.29830310  0.89473568     0.18700
C761        C  0.67420729  0.18377903  0.86315173    -0.07100
C762        C  0.67448917  0.20945062  0.89507189    -0.18200
C763        C  0.66711440  0.19639702  0.93181538     0.10100
C764        C  0.66110010  0.15591400  0.93792731    -0.07000
C765        C  0.65537416  0.13145081  0.90549602    -0.18200
C766        C  0.66179805  0.14481801  0.86826342     0.10100
S767        S  0.66357394  0.23382717  0.96853093    -0.33200
S768        S  0.65284558  0.11116867  0.82890364    -0.33200
H769        H  0.63738428  0.13961742  0.80465159     0.28100
H770        H  0.63706651  0.21364224  0.99006238     0.28100
H771        H  0.68106898  0.24031538  0.89179810     0.18700
H772        H  0.64573988  0.10178422  0.90875324     0.18700
C773        C  0.77926039  0.11848174  0.70249554    -0.07100
C774        C  0.76420714  0.08817582  0.67939146    -0.18200
C775        C  0.78642936  0.05842711  0.66448219     0.10100
C776        C  0.82553703  0.05895050  0.67218362    -0.07000
C777        C  0.84006929  0.08885977  0.69683925    -0.18200
C778        C  0.81751358  0.11827712  0.71180728     0.10100
S779        S  0.76400330  0.02080245  0.63461743    -0.33200
S780        S  0.83963343  0.15692453  0.73994409    -0.33200
H781        H  0.81154040  0.15794824  0.76724927     0.28100
H782        H  0.72788754  0.03589380  0.63459095     0.28100
H783        H  0.73494294  0.08895436  0.67161790     0.18700
H784        H  0.86913576  0.09030140  0.70469403     0.18700
C785        C  0.95648294  0.35597591  0.16289734    -0.07100
C786        C  0.93164377  0.33529252  0.13817068    -0.18200
C787        C  0.89749536  0.32042795  0.15124164     0.10100
C788        C  0.88778882  0.32614116  0.18993574    -0.07000
C789        C  0.91155872  0.34898231  0.21387881    -0.18200
C790        C  0.94531731  0.36437060  0.20071518     0.10100
S791        S  0.86849513  0.29245666  0.11792850    -0.33200
S792        S  0.97322711  0.39392299  0.23380949    -0.33200
H793        H  0.98954028  0.41749886  0.20572917     0.28100
H794        H  0.83477847  0.30073104  0.13568743     0.28100
H795        H  0.93958965  0.32916737  0.10895381     0.18700
H796        H  0.90441973  0.35362858  0.24360301     0.18700
C797        C  0.69079751  0.16086107  0.08004986    -0.07100
C798        C  0.68133692  0.20036164  0.08519055    -0.18200
C799        C  0.69143159  0.22134143  0.11839382     0.10100
C800        C  0.70973476  0.20198862  0.14906324    -0.07000
C801        C  0.72374497  0.16447754  0.14192453    -0.18200
C802        C  0.71657442  0.14487294  0.10690659     0.10100
S803        S  0.68092017  0.27287455  0.11866248    -0.33200
S804        S  0.74651851  0.10451310  0.09656432    -0.33200
H805        H  0.74745796  0.11205570  0.05698042     0.28100
H806        H  0.71528137  0.28430363  0.13569715     0.28100
H807        H  0.66494463  0.21488532  0.06328738     0.18700
H808        H  0.74126448  0.15064498  0.16332490     0.18700
C809        C  0.81299095  0.13046554  0.31072266    -0.07100
C810        C  0.83985483  0.13240131  0.34057573    -0.18200
C811        C  0.85210821  0.09890657  0.35950680     0.10100
C812        C  0.83789900  0.06138873  0.34798219    -0.07000
C813        C  0.80871060  0.05995826  0.32020914    -0.18200
C814        C  0.79588483  0.09378677  0.30206096     0.10100
S815        S  0.88675254  0.10514138  0.39775833    -0.33200
S816        S  0.75814248  0.08762831  0.26769187    -0.33200
H817        H  0.73559316  0.11480173  0.28646932     0.28100
H818        H  0.88955280  0.14628966  0.39739449     0.28100
H819        H  0.85200152  0.16051708  0.34884849     0.18700
H820        H  0.79504787  0.03276216  0.31211564     0.18700
C821        C  0.13874821  0.92465704  0.36726325    -0.07100
C822        C  0.16909646  0.91034227  0.38828937    -0.18200
C823        C  0.18663139  0.87587661  0.37703464     0.10100
C824        C  0.17381459  0.85527038  0.34379589    -0.07000
C825        C  0.14162090  0.86791013  0.32457275    -0.18200
C826        C  0.12409007  0.90241542  0.33590730     0.10100
S827        S  0.22650499  0.86076696  0.40501015    -0.33200
S828        S  0.08518282  0.91864803  0.30734510    -0.33200
H829        H  0.06617413  0.93346478  0.33891352     0.28100
H830        H  0.22237013  0.82057567  0.39619468     0.28100
H831        H  0.18060012  0.92737510  0.41224682     0.18700
H832        H  0.13170340  0.85251832  0.29891162     0.18700
C833        C  0.30778252  0.82641807  0.16348486    -0.07100
C834        C  0.33590416  0.85479328  0.16697669    -0.18200
C835        C  0.35328914  0.86966865  0.13471409     0.10100
C836        C  0.34082646  0.85743384  0.09736450    -0.07000
C837        C  0.31270670  0.82806194  0.09458636    -0.18200
C838        C  0.29610282  0.81275952  0.12705451     0.10100
S839        S  0.39269858  0.90229838  0.14277096    -0.33200
S840        S  0.25976460  0.77625006  0.12013811    -0.33200
H841        H  0.23822567  0.78945500  0.15069680     0.28100
H842        H  0.38957166  0.90727204  0.18264368     0.28100
H843        H  0.34502124  0.86433672  0.19540696     0.18700
H844        H  0.30364320  0.81553911  0.06749619     0.18700
C845        C  0.14150961  0.69406826  0.22431369    -0.07100
C846        C  0.11110131  0.67530924  0.24076943    -0.18200
C847        C  0.07956620  0.66416588  0.21878649     0.10100
C848        C  0.07815468  0.67175043  0.17862998    -0.07000
C849        C  0.10838718  0.69246899  0.16285553    -0.18200
C850        C  0.13994073  0.70329954  0.18499871     0.10100
S851        S  0.04251316  0.63815804  0.24269609    -0.33200
S852        S  0.17755162  0.72711143  0.16028165    -0.33200
H853        H  0.20377578  0.73007280  0.19047787     0.28100
H854        H  0.05500924  0.64567044  0.28059068     0.28100
H855        H  0.11275886  0.66805416  0.27092223     0.18700
H856        H  0.10885944  0.69942782  0.13285717     0.18700
C857        C  0.36857009  0.17384837  0.92453057    -0.07100
C858        C  0.38510320  0.19849380  0.89721545    -0.18200
C859        C  0.36376306  0.21731740  0.86917475     0.10100
C860        C  0.32510653  0.21058903  0.86722180    -0.07000
C861        C  0.30843879  0.18589885  0.89373673    -0.18200
C862        C  0.32927248  0.16779321  0.92246290     0.10100
S863        S  0.38706037  0.25198454  0.83883476    -0.33200
S864        S  0.30415505  0.13902364  0.95724988    -0.33200
H865        H  0.26995945  0.13638758  0.93703038     0.28100
H866        H  0.35813071  0.27921017  0.83800996     0.28100
H867        H  0.41439572  0.20542442  0.89846007     0.18700
H868        H  0.27856937  0.18151672  0.89234723     0.18700
C869        C  0.12444308  0.31031579  0.81162782    -0.07100
C870        C  0.09629886  0.28470263  0.82352197    -0.18200
C871        C  0.06488993  0.29876170  0.84201947     0.10100
C872        C  0.06035856  0.33979757  0.84734770    -0.07000
C873        C  0.08892373  0.36517389  0.83597733    -0.18200
C874        C  0.12040929  0.35109752  0.81772633     0.10100
S875        S  0.03353142  0.26239960  0.86109137    -0.33200
S876        S  0.15399338  0.38688157  0.80177812    -0.33200
H877        H  0.16525105  0.36501640  0.76975873     0.28100
H878        H  0.02359968  0.28500527  0.89312120     0.28100
H879        H  0.09984415  0.25334416  0.82046355     0.18700
H880        H  0.08637783  0.39633408  0.84042176     0.18700
C881        C  0.18726320  0.15120559  0.69474609    -0.07100
C882        C  0.15295007  0.14074194  0.71037981    -0.18200
C883        C  0.13623770  0.10368848  0.70315553     0.10100
C884        C  0.15243407  0.07715349  0.67661522    -0.07000
C885        C  0.18891550  0.08594702  0.66534498    -0.18200
C886        C  0.20646082  0.12207973  0.67405498     0.10100
S887        S  0.09814619  0.09094175  0.73359368    -0.33200
S888        S  0.25382832  0.12967409  0.65908991    -0.33200
H889        H  0.26028815  0.09118921  0.64633751     0.28100
H890        H  0.10635366  0.05078103  0.73452348     0.28100
H891        H  0.13920377  0.16139750  0.72888674     0.18700
H892        H  0.20337311  0.06469953  0.64819757     0.18700
C893        C  0.55911425  0.13320847  0.64946072    -0.07100
C894        C  0.58539852  0.14346960  0.62236783    -0.18200
C895        C  0.62049808  0.15841517  0.63368189     0.10100
C896        C  0.62903338  0.16448944  0.67347452    -0.07000
C897        C  0.60357296  0.15066605  0.70039984    -0.18200
C898        C  0.56921096  0.13445457  0.68882025     0.10100
S899        S  0.65316656  0.16941432  0.59634938    -0.33200
S900        S  0.53920491  0.11625442  0.72565277    -0.33200
H901        H  0.52019216  0.08858580  0.70201657     0.28100
H902        H  0.63321982  0.15112294  0.56580271     0.28100
H903        H  0.57760470  0.14175900  0.59222034     0.18700
H904        H  0.61003413  0.15309165  0.73082284     0.18700
C905        C  0.42106160  0.16406482  0.65181370    -0.07100
C906        C  0.42643827  0.19227848  0.68160408    -0.18200
C907        C  0.39681604  0.21263122  0.69751543     0.10100
C908        C  0.36003790  0.20442663  0.68478692    -0.07000
C909        C  0.35469897  0.17700827  0.65460441    -0.18200
C910        C  0.38413379  0.15712512  0.63806359     0.10100
S911        S  0.40833967  0.24989259  0.73263999    -0.33200
S912        S  0.37332074  0.12299836  0.59912311    -0.33200
H913        H  0.33436256  0.12500828  0.59985467     0.28100
H914        H  0.38902423  0.27845529  0.71174661     0.28100
H915        H  0.45357511  0.19963744  0.69314375     0.18700
H916        H  0.32695624  0.17084635  0.64352965     0.18700
C917        C  0.41051250  0.82464830  0.66823023    -0.07100
C918        C  0.41195837  0.79243575  0.69333403    -0.18200
C919        C  0.38244260  0.78282431  0.71725997     0.10100
C920        C  0.34971943  0.80517951  0.71593162    -0.07000
C921        C  0.34612423  0.83332472  0.68691375    -0.18200
C922        C  0.37549266  0.84255065  0.66252533     0.10100
S923        S  0.38948426  0.74275197  0.74973736    -0.33200
S924        S  0.36786972  0.87825961  0.62520180    -0.33200
H925        H  0.32962077  0.88322385  0.63062478     0.28100
H926        H  0.37990979  0.76446579  0.78230761     0.28100
H927        H  0.43628917  0.77461750  0.69558465     0.18700
H928        H  0.32026397  0.84885019  0.68382194     0.18700
C929        C  0.48010875  0.94849500  0.64043501    -0.07100
C930        C  0.44770667  0.96616936  0.62625565    -0.18200
C931        C  0.44591725  0.00658769  0.62052227     0.10100
C932        C  0.47721562  0.03067975  0.62964473    -0.07000
C933        C  0.51002765  0.01308076  0.64309995    -0.18200
C934        C  0.51172219  0.97236846  0.64886847     0.10100
S935        S  0.40403135  0.02628933  0.59938250    -0.33200
S936        S  0.55443724  0.95298759  0.66803745    -0.33200
H937        H  0.53789871  0.92154254  0.68746428     0.28100
H938        H  0.38709861  0.99033071  0.58844331     0.28100
H939        H  0.42378197  0.94787700  0.61867506     0.18700
H940        H  0.53421501  0.03129380  0.65011050     0.18700
C941        C  0.44209607  0.15281110  0.32928806    -0.07100
C942        C  0.43578155  0.19337589  0.32632630    -0.18200
C943        C  0.40334523  0.20820745  0.30856059     0.10100
C944        C  0.37637558  0.18216800  0.29165766    -0.07000
C945        C  0.38279742  0.14151456  0.29523534    -0.18200
C946        C  0.41475509  0.12672681  0.31373611     0.10100
S947        S  0.39804026  0.26055683  0.30931547    -0.33200
S948        S  0.42135685  0.07437098  0.31428841    -0.33200
H949        H  0.38536302  0.06324765  0.30147217     0.28100
H950        H  0.36090596  0.25852110  0.32104267     0.28100
H951        H  0.45626809  0.21385941  0.33841969     0.18700
H952        H  0.36310803  0.12075210  0.28235459     0.18700
C953        C  0.58365667  0.15108679  0.33686422    -0.07100
C954        C  0.61094202  0.17088094  0.36015137    -0.18200
C955        C  0.64322522  0.18798504  0.34498506     0.10100
C956        C  0.64935552  0.18592276  0.30523109    -0.07000
C957        C  0.62348516  0.16505853  0.28197460    -0.18200
C958        C  0.59135311  0.14731434  0.29707607     0.10100
S959        S  0.67382283  0.21487697  0.37781852    -0.33200
S960        S  0.55984707  0.12144767  0.26422726    -0.33200
H961        H  0.58387436  0.11968804  0.23299765     0.28100
H962        H  0.70669682  0.20905928  0.35783456     0.28100
H963        H  0.60774608  0.17430654  0.39053399     0.18700
H964        H  0.62793644  0.16382847  0.25137619     0.18700
C965        C  0.49971316  0.12671493  0.45172102    -0.07100
C966        C  0.50247778  0.09124507  0.47130700    -0.18200
C967        C  0.49723242  0.08906886  0.51095209     0.10100
C968        C  0.49098233  0.12352836  0.53275926    -0.07000
C969        C  0.48954503  0.15943451  0.51306252    -0.18200
C970        C  0.49364576  0.16130868  0.47297970     0.10100
S971        S  0.49603476  0.04091561  0.53097849    -0.33200
S972        S  0.49104497  0.20787512  0.44898766    -0.33200
H973        H  0.48565769  0.23097028  0.48197462     0.28100
H974        H  0.46193018  0.04762049  0.54832029     0.28100
H975        H  0.50919571  0.06489404  0.45569168     0.18700
H976        H  0.48527733  0.18619248  0.52916842     0.18700
C977        C  0.57041852  0.82641213  0.34905008    -0.07100
C978        C  0.56929066  0.79732500  0.31969619    -0.18200
C979        C  0.60156472  0.78265827  0.30333088     0.10100
C980        C  0.63671853  0.79788438  0.31494846    -0.07000
C981        C  0.63829112  0.82652934  0.34423540    -0.18200
C982        C  0.60611127  0.84061900  0.36151354     0.10100
S983        S  0.59583404  0.74271385  0.26939536    -0.33200
S984        S  0.61162536  0.87714521  0.39938454    -0.33200
H985        H  0.65068737  0.87876719  0.40084967     0.28100
H986        H  0.62417095  0.72040774  0.28637742     0.28100
H987        H  0.54361034  0.78458976  0.30902278     0.18700
H988        H  0.66513379  0.83821195  0.35360960     0.18700
C989        C  0.42794494  0.83226099  0.34950530    -0.07100
C990        C  0.42487756  0.82428873  0.30977261    -0.18200
C991        C  0.39171638  0.81108360  0.29223232     0.10100
C992        C  0.35950997  0.80699313  0.31416701    -0.07000
C993        C  0.36150390  0.81677077  0.35334379    -0.18200
C994        C  0.39522396  0.82858809  0.37141565     0.10100
S995        S  0.39178764  0.80348965  0.24098047    -0.33200
S996        S  0.39380976  0.83741809  0.42226809    -0.33200
H997        H  0.42795523  0.81998584  0.42958047     0.28100
H998        H  0.37005486  0.76909295  0.24090379     0.28100
H999        H  0.44865648  0.82866317  0.29170427     0.18700
H1000       H  0.33652037  0.81492234  0.37008661     0.18700
C1001       C  0.49556945  0.85308537  0.46789436    -0.07100
C1002       C  0.50233105  0.88775379  0.48868204    -0.18200
C1003       C  0.49664053  0.89026062  0.52832292     0.10100
C1004       C  0.48519577  0.85656132  0.54866270    -0.07000
C1005       C  0.48047325  0.82106449  0.52801304    -0.18200
C1006       C  0.48588051  0.81874267  0.48819764     0.10100
S1007       S  0.50176478  0.93762738  0.55112553    -0.33200
S1008       S  0.48094775  0.77069217  0.46612372    -0.33200
H1009       H  0.48157194  0.78147545  0.42748790     0.28100
H1010       H  0.52051470  0.95640261  0.52130303     0.28100
H1011       H  0.51247546  0.91311156  0.47356716     0.18700
H1012       H  0.47291457  0.79463607  0.54316566     0.18700
C1013       C  0.49471079  0.94877050  0.37015815    -0.07100
C1014       C  0.50683341  0.96581899  0.33577184    -0.18200
C1015       C  0.50851577  0.00654531  0.33058017     0.10100
C1016       C  0.49863759  0.03216910  0.36065997    -0.07000
C1017       C  0.48167356  0.01548456  0.39265263    -0.18200
C1018       C  0.47967322  0.97451554  0.39801594     0.10100
S1019       S  0.52150225  0.02358414  0.28391566    -0.33200
S1020       S  0.45802974  0.95727109  0.44091840    -0.33200
H1021       H  0.45949251  0.99292274  0.46152965     0.28100
H1022       H  0.50040677  0.05787860  0.28531406     0.28100
H1023       H  0.51533224  0.94716922  0.31234384     0.18700
H1024       H  0.47055240  0.03462426  0.41417308     0.18700
C1025       C  0.68845801  0.66980606  0.16859900    -0.07100
C1026       C  0.68081101  0.66387350  0.12926214    -0.18200
C1027       C  0.66732997  0.62763110  0.11473827     0.10100
C1028       C  0.66287599  0.59576833  0.13994835    -0.07000
C1029       C  0.66701577  0.60316732  0.17969466    -0.18200
C1030       C  0.67927835  0.63960335  0.19419395     0.10100
S1031       S  0.65844947  0.62278984  0.06395133    -0.33200
S1032       S  0.68616378  0.64423693  0.24527377    -0.33200
H1033       H  0.66316477  0.67699042  0.24797710     0.28100
H1034       H  0.65762880  0.66313276  0.05605434     0.28100
H1035       H  0.68686407  0.68739873  0.10960762     0.18700
H1036       H  0.66188961  0.57979150  0.19981480     0.18700
C1037       C  0.68695812  0.45326177  0.15880187    -0.07100
C1038       C  0.67133540  0.44022620  0.19328552    -0.18200
C1039       C  0.68664880  0.40968673  0.21423520     0.10100
C1040       C  0.71925338  0.39196726  0.20166501    -0.07000
C1041       C  0.73802316  0.40807705  0.17066824    -0.18200
C1042       C  0.72302397  0.43940599  0.14991519     0.10100
S1043       S  0.66233004  0.39342007  0.25608715    -0.33200
S1044       S  0.75205499  0.45980632  0.11332243    -0.33200
H1045       H  0.74082445  0.49866648  0.11831646     0.28100
H1046       H  0.69357153  0.37810494  0.27524568     0.28100
H1047       H  0.64666440  0.45352827  0.20433650     0.18700
H1048       H  0.76383892  0.39527739  0.16170913     0.18700
C1049       C  0.67470306  0.43027545  0.82268584    -0.07100
C1050       C  0.71116917  0.42159283  0.83505223    -0.18200
C1051       C  0.73022863  0.38961663  0.82051918     0.10100
C1052       C  0.71310615  0.36464749  0.79272855    -0.07000
C1053       C  0.67878275  0.37541044  0.77667213    -0.18200
C1054       C  0.66026448  0.40892499  0.78998824     0.10100
S1055       S  0.77643050  0.38127348  0.83940505    -0.33200
S1056       S  0.61993803  0.42318339  0.76230749    -0.33200
H1057       H  0.62639122  0.46360714  0.76711758     0.28100
H1058       H  0.78974973  0.36600713  0.80479882     0.28100
H1059       H  0.72536793  0.43982452  0.85647651     0.18700
H1060       H  0.66599545  0.35727069  0.75420989     0.18700
C1061       C  0.65141924  0.50398836  0.94674187    -0.07100
C1062       C  0.63485638  0.47350106  0.96747202    -0.18200
C1063       C  0.63326342  0.47471294  0.00757411     0.10100
C1064       C  0.64884734  0.50723868  0.02818330    -0.07000
C1065       C  0.66679016  0.53686919  0.00755411    -0.18200
C1066       C  0.66847948  0.53554458  0.96731220     0.10100
S1067       S  0.61144242  0.43321119  0.03027110    -0.33200
S1068       S  0.69544794  0.57329420  0.94459829    -0.33200
H1069       H  0.70465177  0.55122803  0.91202001     0.28100
H1070       H  0.59904948  0.45331891  0.06264791     0.28100
H1071       H  0.62235072  0.44868657  0.95209120     0.18700
H1072       H  0.68164090  0.56000971  0.02296377     0.18700
C1073       C  0.34444842  0.36424382  0.18993237    -0.07100
C1074       C  0.32293341  0.38612625  0.16396112    -0.18200
C1075       C  0.33696049  0.41974250  0.14617477     0.10100
C1076       C  0.37390967  0.43271305  0.15410341    -0.07000
C1077       C  0.39660555  0.40915964  0.17751093    -0.18200
C1078       C  0.38221918  0.37544210  0.19575313     0.10100
S1079       S  0.30509136  0.44555040  0.11519875    -0.33200
S1080       S  0.41231097  0.35032035  0.22884944    -0.33200
H1081       H  0.38551310  0.34602894  0.25733212     0.28100
H1082       H  0.33162962  0.46686574  0.09491451     0.28100
H1083       H  0.29407561  0.37781669  0.15858956     0.18700
H1084       H  0.42490156  0.41871183  0.18402220     0.18700
C1085       C  0.36273219  0.58016443  0.16496992    -0.07100
C1086       C  0.38130487  0.61123821  0.18518721    -0.18200
C1087       C  0.36199541  0.64216522  0.20233529     0.10100
C1088       C  0.32272226  0.64222225  0.20094564    -0.07000
C1089       C  0.30428132  0.61240986  0.17956955    -0.18200
C1090       C  0.32338553  0.58225806  0.16126583     0.10100
S1091       S  0.38922585  0.68003793  0.22636690    -0.33200
S1092       S  0.29610125  0.54641186  0.13388465    -0.33200
H1093       H  0.26332380  0.56814368  0.13078143     0.28100
H1094       H  0.37456947  0.70947514  0.20275430     0.28100
H1095       H  0.41110030  0.61248475  0.18798269     0.18700
H1096       H  0.27424028  0.61231289  0.17753290     0.18700
C1097       C  0.48403838  0.51118554  0.13259965    -0.07100
C1098       C  0.49931451  0.51583993  0.09628691    -0.18200
C1099       C  0.53797672  0.51722419  0.09129350     0.10100
C1100       C  0.56226280  0.51313082  0.12344409    -0.07000
C1101       C  0.54662605  0.50891334  0.15992047    -0.18200
C1102       C  0.50807436  0.50793053  0.16483529     0.10100
S1103       S  0.55516587  0.52323499  0.04354946    -0.33200
S1104       S  0.49144804  0.50205839  0.21292002    -0.33200
H1105       H  0.45718004  0.48420058  0.20264920     0.28100
H1106       H  0.52051163  0.52279119  0.02417876     0.28100
H1107       H  0.48065608  0.51916550  0.07181163     0.18700
H1108       H  0.56468738  0.50608886  0.18496822     0.18700
C1109       C  0.36595606  0.57788986  0.85497331    -0.07100
C1110       C  0.33401510  0.58724749  0.87509768    -0.18200
C1111       C  0.31545945  0.62232115  0.86879124     0.10100
C1112       C  0.32778731  0.64832370  0.84011815    -0.07000
C1113       C  0.36097239  0.63998735  0.82132739    -0.18200
C1114       C  0.38026417  0.60518942  0.82865457     0.10100
S1115       S  0.27557928  0.63161636  0.89778727    -0.33200
S1116       S  0.42094060  0.59566722  0.80116292    -0.33200
H1117       H  0.43941089  0.57474470  0.83008688     0.28100
H1118       H  0.27992429  0.67267860  0.89761795     0.28100
H1119       H  0.32295050  0.56652536  0.89546429     0.18700
H1120       H  0.37068980  0.65939751  0.79913634     0.18700
C1121       C  0.35056176  0.43210995  0.83635705    -0.07100
C1122       C  0.36662181  0.40451357  0.81140831    -0.18200
C1123       C  0.34677282  0.37171363  0.79685332     0.10100
C1124       C  0.30957606  0.36495879  0.80739581    -0.07000
C1125       C  0.29237769  0.39433191  0.82910731    -0.18200
C1126       C  0.31192848  0.42770359  0.84309497     0.10100
S1127       S  0.37140230  0.33926461  0.76598998    -0.33200
S1128       S  0.28679197  0.46380660  0.87022691    -0.33200
H1129       H  0.25086367  0.44814568  0.86328769     0.28100
H1130       H  0.34403345  0.34020294  0.73660002     0.28100
H1131       H  0.39477501  0.40790495  0.80215177     0.18700
H1132       H  0.26343996  0.39057598  0.83624455     0.18700
C1133       C  0.47624606  0.50171346  0.86243602    -0.07100
C1134       C  0.49701029  0.51080074  0.89587308    -0.18200
C1135       C  0.53603560  0.51025824  0.89640142     0.10100
C1136       C  0.55501533  0.49901584  0.86295718    -0.07000
C1137       C  0.53415866  0.49191348  0.82906575    -0.18200
C1138       C  0.49538275  0.49417063  0.82812624     0.10100
S1139       S  0.56013195  0.52139529  0.94095259    -0.33200
S1140       S  0.47248144  0.48836206  0.78181538    -0.33200
H1141       H  0.44148785  0.51108754  0.79031829     0.28100
H1142       H  0.53123158  0.54272193  0.95729946     0.28100
H1143       H  0.48259969  0.51661555  0.92222126     0.18700
H1144       H  0.54832575  0.48513243  0.80275666     0.18700
C1145       C  0.39222180  0.50287027  0.96018623    -0.07100
C1146       C  0.39250005  0.46876161  0.98273830    -0.18200
C1147       C  0.39234643  0.47025240  0.02312846     0.10100
C1148       C  0.39472781  0.50697681  0.04241472    -0.07000
C1149       C  0.39574673  0.54102150  0.01988101    -0.18200
C1150       C  0.39307004  0.53960002  0.97958029     0.10100
S1151       S  0.38597344  0.42492055  0.04873499    -0.33200
S1152       S  0.38721056  0.58520181  0.95449672    -0.33200
H1153       H  0.39228916  0.61080485  0.98608332     0.28100
H1154       H  0.38350976  0.39953328  0.01674117     0.28100
H1155       H  0.39225055  0.44042714  0.96859788     0.18700
H1156       H  0.39787461  0.56932135  0.03402324     0.18700
C1157       C  0.14773245  0.64066198  0.59841431    -0.07100
C1158       C  0.16830325  0.61625179  0.62297421    -0.18200
C1159       C  0.18500571  0.63021697  0.65690702     0.10100
C1160       C  0.18058101  0.66989475  0.66811244    -0.07000
C1161       C  0.15987179  0.69433658  0.64398861    -0.18200
C1162       C  0.14420997  0.68070729  0.60924856     0.10100
S1163       S  0.21319595  0.59558684  0.68274774    -0.33200
S1164       S  0.12022832  0.71572980  0.57943361    -0.33200
H1165       H  0.13469816  0.74995510  0.59740152     0.28100
H1166       H  0.24528154  0.61969573  0.68199631     0.28100
H1167       H  0.17382958  0.58631911  0.61551340     0.18700
H1168       H  0.15607184  0.72466159  0.65215850     0.18700
C1169       C  0.15323276  0.64786581  0.45446226    -0.07100
C1170       C  0.15696951  0.62095807  0.42420062    -0.18200
C1171       C  0.17067538  0.63251518  0.38885187     0.10100
C1172       C  0.18269355  0.67183806  0.38379750    -0.07000
C1173       C  0.17869595  0.69879777  0.41403522    -0.18200
C1174       C  0.16356655  0.68759986  0.44880697     0.10100
S1175       S  0.17059996  0.59574812  0.35135105    -0.33200
S1176       S  0.15704491  0.72619355  0.48355023    -0.33200
H1177       H  0.12290205  0.71134982  0.49613227     0.28100
H1178       H  0.15703734  0.62099336  0.32280396     0.28100
H1179       H  0.14903894  0.59049113  0.42797858     0.18700
H1180       H  0.18731992  0.72912815  0.41061593     0.18700
C1181       C  0.85320118  0.63272224  0.41038367    -0.07100
C1182       C  0.87640122  0.65457224  0.38667992    -0.18200
C1183       C  0.86158364  0.67318092  0.35450484     0.10100
C1184       C  0.82363440  0.66723140  0.34489873    -0.07000
C1185       C  0.80260504  0.63956647  0.36474229    -0.18200
C1186       C  0.81640964  0.62323204  0.39822749     0.10100
S1187       S  0.89042447  0.70904289  0.33137799    -0.33200
S1188       S  0.78352887  0.59563275  0.42623665    -0.33200
H1189       H  0.80856590  0.58041205  0.45315136     0.28100
H1190       H  0.86453136  0.73920542  0.33492464     0.28100
H1191       H  0.90455842  0.66184110  0.39624701     0.18700
H1192       H  0.77359629  0.63451914  0.35683407     0.18700
C1193       C  0.95966662  0.62490473  0.49737914    -0.07100
C1194       C  0.98318725  0.63831048  0.46872316    -0.18200
C1195       C  0.02180318  0.63833974  0.47439457     0.10100
C1196       C  0.03694370  0.62376211  0.50908284    -0.07000
C1197       C  0.01315917  0.60823114  0.53654803    -0.18200
C1198       C  0.97479469  0.60863495  0.53117087     0.10100
S1199       S  0.04977986  0.65942458  0.43748817    -0.33200
S1200       S  0.94561084  0.58831093  0.56782697    -0.33200
H1201       H  0.97404867  0.57177694  0.59036900     0.28100
H1202       H  0.07501129  0.67785235  0.46326993     0.28100
H1203       H  0.97138072  0.65048640  0.44268033     0.18700
H1204       H  0.02482229  0.59575468  0.56247499     0.18700
C1205       C  0.15142157  0.32210392  0.42575571    -0.07100
C1206       C  0.17934575  0.29376082  0.43031119    -0.18200
C1207       C  0.20235423  0.28354349  0.40007776     0.10100
C1208       C  0.19741355  0.30187746  0.36440113    -0.07000
C1209       C  0.16804826  0.32743467  0.35881328    -0.18200
C1210       C  0.14471583  0.33746121  0.38852220     0.10100
S1211       S  0.23772548  0.24768356  0.40937351    -0.33200
S1212       S  0.10747763  0.37122325  0.37807841    -0.33200
H1213       H  0.11324031  0.37510823  0.33852793     0.28100
H1214       H  0.26190897  0.25868574  0.38016336     0.28100
H1215       H  0.18447519  0.27973580  0.45736294     0.18700
H1216       H  0.16324510  0.33945149  0.33071244     0.18700
C1217       C  0.12918283  0.33420749  0.56972742    -0.07100
C1218       C  0.15116194  0.36044211  0.59185338    -0.18200
C1219       C  0.16775668  0.34849803  0.62628809     0.10100
C1220       C  0.16184402  0.30975862  0.63871193    -0.07000
C1221       C  0.13661666  0.28503360  0.61873152    -0.18200
C1222       C  0.12001618  0.29702952  0.58440891     0.10100
S1223       S  0.19896215  0.38248775  0.65114764    -0.33200
S1224       S  0.08953840  0.26286232  0.55908774    -0.33200
H1225       H  0.06687627  0.29211380  0.54360025     0.28100
H1226       H  0.19732163  0.36445187  0.68716950     0.28100
H1227       H  0.15770464  0.38924706  0.58089497     0.18700
H1228       H  0.13205040  0.25524108  0.62832527     0.18700
C1229       C  0.12083494  0.44496954  0.49483081    -0.07100
C1230       C  0.09034980  0.46660642  0.48217802    -0.18200
C1231       C  0.08939447  0.50735031  0.48746514     0.10100
C1232       C  0.12055396  0.52706746  0.50456647    -0.07000
C1233       C  0.15241268  0.50538906  0.51385296    -0.18200
C1234       C  0.15280334  0.46462216  0.50930528     0.10100
S1235       S  0.04710720  0.53228365  0.47485289    -0.33200
S1236       S  0.19384484  0.43785558  0.52280426    -0.33200
H1237       H  0.21770885  0.47069415  0.52749102     0.28100
H1238       H  0.03020913  0.50156062  0.45327590     0.28100
H1239       H  0.06720628  0.45147402  0.46812050     0.18700
H1240       H  0.17677864  0.52041017  0.52584431     0.18700
C1241       C  0.83110608  0.32662899  0.56324424    -0.07100
C1242       C  0.80351273  0.34584571  0.58433756    -0.18200
C1243       C  0.79010959  0.33062776  0.61835918     0.10100
C1244       C  0.80426468  0.29521407  0.63212917    -0.07000
C1245       C  0.82836522  0.27367242  0.60919103    -0.18200
C1246       C  0.84084510  0.28823776  0.57429538     0.10100
S1247       S  0.75318214  0.35647361  0.64133908    -0.33200
S1248       S  0.86795644  0.25683270  0.54388643    -0.33200
H1249       H  0.86695397  0.22337075  0.56708490     0.28100
H1250       H  0.73244139  0.32252147  0.65008877     0.28100
H1251       H  0.79072198  0.37218476  0.57405695     0.18700
H1252       H  0.83710335  0.24503116  0.61854746     0.18700
C1253       C  0.83610719  0.31942622  0.34350658    -0.07100
C1254       C  0.80633058  0.33141108  0.36591424    -0.18200
C1255       C  0.81213057  0.34408822  0.40387097     0.10100
C1256       C  0.84836651  0.34387826  0.42020256    -0.07000
C1257       C  0.87840699  0.33479735  0.39706530    -0.18200
C1258       C  0.87278450  0.32285186  0.35881493     0.10100
S1259       S  0.77232991  0.36058775  0.42969739    -0.33200
S1260       S  0.91269869  0.31274920  0.32984890    -0.33200
H1261       H  0.94008660  0.31942952  0.35865409     0.28100
H1262       H  0.79197275  0.38852184  0.45248951     0.28100
H1263       H  0.77821071  0.32977774  0.35420484     0.18700
H1264       H  0.90626436  0.33596838  0.40942235     0.18700
C1265       C  0.86788648  0.45295192  0.49969298    -0.07100
C1266       C  0.86392934  0.47069982  0.46389558    -0.18200
C1267       C  0.86708600  0.51134543  0.46033702     0.10100
C1268       C  0.87380849  0.53443637  0.49371599    -0.07000
C1269       C  0.87861868  0.51630768  0.52925986    -0.18200
C1270       C  0.87638043  0.47605156  0.53272008     0.10100
S1271       S  0.86071353  0.53251692  0.41348358    -0.33200
S1272       S  0.88705219  0.45689338  0.57983028    -0.33200
H1273       H  0.90438039  0.42267312  0.56723175     0.28100
H1274       H  0.85334983  0.49744470  0.39298555     0.28100
H1275       H  0.85775420  0.45257421  0.43882720     0.18700
H1276       H  0.88444797  0.53376508  0.55484714     0.18700
C1277       C  0.95169254  0.35902844  0.49730018    -0.07100
C1278       C  0.96721327  0.32257804  0.48897349    -0.18200
C1279       C  0.00558658  0.31896775  0.48359870     0.10100
C1280       C  0.02900427  0.35251296  0.48837736    -0.07000
C1281       C  0.01315733  0.38855298  0.49712766    -0.18200
C1282       C  0.97494313  0.39256806  0.50015356     0.10100
S1283       S  0.02388673  0.27123507  0.47268896    -0.33200
S1284       S  0.95716006  0.44080131  0.50850427    -0.33200
H1285       H  0.98989427  0.46216695  0.50099019     0.28100
H1286       H  0.98959709  0.25096165  0.46956777     0.28100
H1287       H  0.94903441  0.29704166  0.48639391     0.18700
H1288       H  0.03080141  0.41396996  0.50179499     0.18700
C1289       C  0.80124999  0.69398430  0.61369239    -0.07100
C1290       C  0.80136428  0.71324878  0.57840099    -0.18200
C1291       C  0.82250969  0.69982291  0.54813213     0.10100
C1292       C  0.84024012  0.66329476  0.55167910    -0.07000
C1293       C  0.84269090  0.64607621  0.58825952    -0.18200
C1294       C  0.82300982  0.66051641  0.61899880     0.10100
S1295       S  0.83128685  0.73310162  0.50910999    -0.33200
S1296       S  0.82578185  0.63387411  0.66339605    -0.33200
H1297       H  0.78823217  0.63873150  0.67244502     0.28100
H1298       H  0.80545842  0.76178557  0.51902215     0.28100
H1299       H  0.78628019  0.74018042  0.57521038     0.18700
H1300       H  0.85948360  0.62042701  0.59288865     0.18700
C1301       C  0.68152988  0.65057227  0.80473437    -0.07100
C1302       C  0.67301576  0.62155897  0.77706333    -0.18200
C1303       C  0.65799064  0.58506311  0.78784433     0.10100
C1304       C  0.65406234  0.57627604  0.82735692    -0.07000
C1305       C  0.65850963  0.60700537  0.85403810    -0.18200
C1306       C  0.67130799  0.64399844  0.84303188     0.10100
S1307       S  0.64227938  0.55211339  0.74994100    -0.33200
S1308       S  0.67400417  0.68195165  0.87921080    -0.33200
H1309       H  0.66537915  0.71234594  0.85374793     0.28100
H1310       H  0.61330029  0.53544390  0.77118572     0.28100
H1311       H  0.67877516  0.62697461  0.74719465     0.18700
H1312       H  0.65288258  0.60222641  0.88389818     0.18700
C1313       C  0.62184577  0.80629824  0.69240470    -0.07100
C1314       C  0.61483367  0.81036444  0.65270062    -0.18200
C1315       C  0.58044556  0.82326962  0.63816123     0.10100
C1316       C  0.55228510  0.83318392  0.66381953    -0.07000
C1317       C  0.55942666  0.82964306  0.70350008    -0.18200
C1318       C  0.59360378  0.81647261  0.71796354     0.10100
S1319       S  0.57201743  0.82385523  0.58691319    -0.33200
S1320       S  0.59974259  0.81467663  0.76923035    -0.33200
H1321       H  0.63592079  0.83084449  0.76891804     0.28100
H1322       H  0.60770511  0.81254207  0.57604642     0.28100
H1323       H  0.63615538  0.80223694  0.63284000     0.18700
H1324       H  0.53810839  0.83741373  0.72355619     0.18700
C1325       C  0.69335330  0.79593392  0.87143293    -0.07100
C1326       C  0.66229430  0.81923917  0.86470866    -0.18200
C1327       C  0.64266747  0.83566401  0.89483637     0.10100
C1328       C  0.65291193  0.82700338  0.93336573    -0.07000
C1329       C  0.68459004  0.80423548  0.93981398    -0.18200
C1330       C  0.70498266  0.78915885  0.90993933     0.10100
S1331       S  0.60587787  0.86913950  0.88285186    -0.33200
S1332       S  0.74662411  0.76372681  0.92442380    -0.33200
H1333       H  0.73504750  0.72776444  0.90793858     0.28100
H1334       H  0.61529579  0.87525062  0.84440887     0.28100
H1335       H  0.65366666  0.82537578  0.83559103     0.18700
H1336       H  0.69555144  0.79898510  0.96811283     0.18700
C1337       C  0.81053522  0.84375430  0.67267289    -0.07100
C1338       C  0.83141556  0.86331507  0.70171132    -0.18200
C1339       C  0.85038437  0.89860267  0.69435984     0.10100
C1340       C  0.84804753  0.91541143  0.65756312    -0.07000
C1341       C  0.82926606  0.89486597  0.62806442    -0.18200
C1342       C  0.81125129  0.85908250  0.63489865     0.10100
S1343       S  0.87716480  0.92130680  0.73280504    -0.33200
S1344       S  0.79046689  0.83428697  0.59378744    -0.33200
H1345       H  0.80288789  0.79752581  0.60582347     0.28100
H1346       H  0.90641994  0.93162815  0.70859756     0.28100
H1347       H  0.83223709  0.85166850  0.73050019     0.18700
H1348       H  0.82741127  0.90746244  0.59973570     0.18700
C1349       C  0.87134740  0.70008152  0.79399532    -0.07100
C1350       C  0.89606916  0.67509529  0.77610778    -0.18200
C1351       C  0.92744079  0.66084070  0.79597057     0.10100
C1352       C  0.93423019  0.67132275  0.83532093    -0.07000
C1353       C  0.91001491  0.69854941  0.85195226    -0.18200
C1354       C  0.87918602  0.71293265  0.83185325     0.10100
S1355       S  0.95750389  0.62816307  0.77046903    -0.33200
S1356       S  0.85030000  0.74743403  0.85650601    -0.33200
H1357       H  0.83779468  0.76695903  0.82345227     0.28100
H1358       H  0.93871055  0.62871294  0.73471863     0.28100
H1359       H  0.88974448  0.66535576  0.74702171     0.18700
H1360       H  0.91429117  0.70949047  0.88071750     0.18700
loop_ 
_geom_bond_atom_site_label_1 
_geom_bond_atom_site_label_2 
_geom_bond_distance 
_geom_bond_site_symmetry_2 
_ccdc_geom_bond_type 
O1           Ni7   1.917       .  S
O1           C22   1.269       .  A
O2          Ni25   1.930       .  S
O2           C11   1.270       .  A
O3           Ni7   1.890       .  S
O3          Ni25   1.907       .  S
O3          Ni19   1.912       .  S
O3           H26   0.966       .  S
C4           O21   1.285       .  A
C4           O13   1.270       .  A
C4         C1325   1.479       .  S
O5          Ni24   1.904       .  S
O5           C11   1.264       .  A
O6          Ni24   1.903       .  S
O6            C8   1.267       .  A
Ni7          O10   1.908       .  S
Ni7          O12   1.903       .  S
C8           O18   1.275       .  A
C8         C1301   1.481       .  S
O9          Ni25   1.901       .  S
O9           C15   1.274       .  A
O10          C15   1.277       .  A
C11        C1349   1.475       .  S
O12          C14   1.267       .  A
O13         Ni24   1.890       .  S
C14          O20   1.276       .  A
C14        C1337   1.492       .  S
C15        C1289   1.459       .  S
H16          O17   0.966       .  S
O17         Ni25   1.904       .  S
O17         Ni19   1.904       .  S
O17         Ni24   1.889       .  S
O18         Ni19   1.945       .  S
Ni19         O23   1.935       .  S
Ni19         O21   1.925       .  S
O20         Ni25   1.941       .  S
C22          O23   1.277       .  A
C22        C1313   1.492       .  S
C27          C28   1.548       .  S
C27          C33   1.535       .  S
C27          C31   1.537       .  S
C27        C1241   1.529       .  S
C28          H35   1.086       .  S
C28          C29   1.363       .  D
C29          C30   1.526       .  S
C29        C1277   1.477       .  S
C30          C34   1.535       .  S
C30          C32   1.528       .  S
C30          H36   1.111       .  S
C31          H37   1.080       .  S
C31          C32   1.354       .  D
C32        C1265   1.462       .  S
C33          H38   1.086       .  S
C33          C34   1.369       .  D
C34        C1256   1.477       .  S
C39          C40   1.540       .  S
C39          C45   1.544       .  S
C39          C43   1.535       .  S
C39        C1205   1.527       .  S
C40          H47   1.085       .  S
C40          C41   1.366       .  D
C41          C42   1.541       .  S
C41        C1280   1.484       .  S
C42          C46   1.529       .  S
C42          C44   1.536       .  S
C42          H48   1.111       .  S
C43          H49   1.087       .  S
C43          C44   1.353       .  D
C44        C1229   1.474       .  S
C45          H50   1.081       .  S
C45          C46   1.365       .  D
C46        C1217   1.470       .  S
C51          C52   1.537       .  S
C51          C57   1.528       .  S
C51          C55   1.523       .  S
C51        C1292   1.515       .  S
C52          H59   1.086       .  S
C52          C53   1.364       .  D
C53          C54   1.529       .  S
C53        C1268   1.469       .  S
C54          C58   1.533       .  S
C54          C56   1.533       .  S
C54          H60   1.110       .  S
C55          H61   1.087       .  S
C55          C56   1.360       .  D
C56        C1193   1.468       .  S
C57          H62   1.083       .  S
C57          C58   1.363       .  D
C58        C1181   1.458       .  S
C63          C64   1.531       .  S
C63          C69   1.531       .  S
C63          C67   1.544       .  S
C63        C1157   1.531       .  S
C64          H71   1.087       .  S
C64          C65   1.364       .  D
C65          C66   1.534       .  S
C65        C1196   1.476       .  S
C66          C70   1.539       .  S
C66          C68   1.539       .  S
C66          H72   1.107       .  S
C67          H73   1.080       .  S
C67          C68   1.366       .  D
C68        C1232   1.490       .  S
C69          H74   1.085       .  S
C69          C70   1.363       .  D
C70        C1169   1.482       .  S
C75          C76   1.543       .  S
C75          C81   1.536       .  S
C75          C79   1.543       .  S
C75        C1121   1.549       .  S
C76          H83   1.080       .  S
C76          C77   1.364       .  D
C77          C78   1.542       .  S
C77        C1133   1.491       .  S
C78          C82   1.543       .  S
C78          C80   1.552       .  S
C78          H84   1.106       .  S
C79          H85   1.085       .  S
C79          C80   1.375       .  D
C80        C1145   1.514       .  S
C81          H86   1.086       .  S
C81          C82   1.364       .  D
C82        C1109   1.485       .  S
C87          C88   1.547       .  S
C87          C93   1.539       .  S
C87          C91   1.541       .  S
C87        C1085   1.553       .  S
C88          H95   1.081       .  S
C88          C89   1.365       .  D
C89          C90   1.540       .  S
C89        C1097   1.485       .  S
C90          C94   1.552       .  S
C90          C92   1.551       .  S
C90          H96   1.107       .  S
C91          H97   1.085       .  S
C91          C92   1.374       .  D
C92        C1148   1.511       .  S
C93          H98   1.086       .  S
C93          C94   1.367       .  D
C94        C1076   1.501       .  S
C99         C100   1.545       .  S
C99         C105   1.529       .  S
C99         C103   1.546       .  S
C99        C1049   1.548       .  S
C100        H107   1.086       .  S
C100        C101   1.364       .  D
C101        C102   1.548       .  S
C101       C1061   1.494       .  S
C102        C106   1.550       .  S
C102        C104   1.540       .  S
C102        H108   1.108       .  S
C103        H109   1.083       .  S
C103        C104   1.374       .  D
C104       C1136   1.496       .  S
C105        H110   1.085       .  S
C105        C106   1.366       .  D
C106       C1304   1.500       .  S
C111        C112   1.548       .  S
C111        C117   1.523       .  S
C111        C115   1.534       .  S
C111       C1037   1.540       .  S
C112        H119   1.085       .  S
C112        C113   1.367       .  D
C113        C114   1.546       .  S
C113       C1100   1.501       .  S
C114        C118   1.553       .  S
C114        C116   1.558       .  S
C114        H120   1.105       .  S
C115        H121   1.085       .  S
C115        C116   1.366       .  D
C116       C1064   1.494       .  S
C117        H122   1.087       .  S
C117        C118   1.366       .  D
C118       C1028   1.502       .  S
C123        C124   1.539       .  S
C123        C129   1.542       .  S
C123        C127   1.534       .  S
C123        C977   1.553       .  S
C124        H131   1.086       .  S
C124        C125   1.373       .  D
C125        C126   1.555       .  S
C125       C1013   1.523       .  S
C126        C130   1.549       .  S
C126        C128   1.558       .  S
C126        H132   1.100       .  S
C127        H133   1.086       .  S
C127        C128   1.364       .  D
C128       C1001   1.491       .  S
C129        H134   1.077       .  S
C129        C130   1.369       .  D
C130        C989   1.508       .  S
C135        C136   1.547       .  S
C135        C141   1.543       .  S
C135        C139   1.545       .  S
C135        C953   1.562       .  S
C136        H143   1.080       .  S
C136        C137   1.363       .  D
C137        C138   1.548       .  S
C137        C965   1.493       .  S
C138        C142   1.555       .  S
C138        C140   1.550       .  S
C138        H144   1.110       .  S
C139        H145   1.085       .  S
C139        C140   1.374       .  D
C140       C1016   1.511       .  S
C141        H146   1.086       .  S
C141        C142   1.369       .  D
C142        C941   1.511       .  S
C147        C148   1.535       .  S
C147        C153   1.540       .  S
C147        C151   1.544       .  S
C147        C917   1.546       .  S
C148        H155   1.087       .  S
C148        C149   1.362       .  D
C149        C150   1.545       .  S
C149        C929   1.491       .  S
C150        C154   1.549       .  S
C150        C152   1.550       .  S
C150        H156   1.108       .  S
C151        H157   1.086       .  S
C151        C152   1.374       .  D
C152       C1004   1.506       .  S
C153        H158   1.081       .  S
C153        C154   1.363       .  D
C154       C1316   1.495       .  S
C159        C160   1.541       .  S
C159        C165   1.538       .  S
C159        C163   1.540       .  S
C159        C905   1.545       .  S
C160        H167   1.086       .  S
C160        C161   1.370       .  D
C161        C162   1.553       .  S
C161        C968   1.509       .  S
C162        C166   1.539       .  S
C162        C164   1.542       .  S
C162        H168   1.109       .  S
C163        H169   1.086       .  S
C163        C164   1.368       .  D
C164        C932   1.491       .  S
C165        H170   1.079       .  S
C165        C166   1.360       .  D
C166        C893   1.478       .  S
O171       Ni177   1.909       .  S
O171        C192   1.268       .  A
O172       Ni195   1.922       .  S
O172        C181   1.274       .  A
O173       Ni177   1.883       .  S
O173       Ni195   1.902       .  S
O173       Ni189   1.910       .  S
O173        H196   0.966       .  S
C174        O191   1.278       .  A
C174        O183   1.279       .  A
C174        C860   1.465       .  S
O175       Ni194   1.926       .  S
O175        C181   1.271       .  A
O176       Ni194   1.898       .  S
O176        C178   1.268       .  A
Ni177       O180   1.906       .  S
Ni177       O182   1.906       .  S
C178        O188   1.278       .  A
C178       C1124   1.502       .  S
O179       Ni195   1.923       .  S
O179        C185   1.276       .  A
O180        C185   1.274       .  A
C181        C869   1.480       .  S
O182        C184   1.267       .  A
O183       Ni194   1.915       .  S
C184        O190   1.279       .  A
C184        C881   1.499       .  S
C185       C1220   1.457       .  S
H186        O187   0.966       .  S
O187       Ni195   1.901       .  S
O187       Ni189   1.905       .  S
O187       Ni194   1.885       .  S
O188       Ni189   1.951       .  S
Ni189       O193   1.938       .  S
Ni189       O191   1.915       .  S
O190       Ni195   1.954       .  S
C192        O193   1.276       .  A
C192        C908   1.501       .  S
O197       Ni203   1.923       .  S
O197        C218   1.269       .  A
O198       Ni221   1.929       .  S
O198        C207   1.271       .  A
O199       Ni203   1.895       .  S
O199       Ni221   1.901       .  S
O199       Ni215   1.897       .  S
O199        H222   0.966       .  S
C200        O217   1.276       .  A
C200        O209   1.275       .  A
C200       C1172   1.480       .  S
O201       Ni220   1.928       .  S
O201        C207   1.272       .  A
O202       Ni220   1.908       .  S
O202        C204   1.268       .  A
Ni203       O206   1.914       .  S
Ni203       O208   1.900       .  S
C204        O214   1.271       .  A
C204        C845   1.471       .  S
O205       Ni221   1.909       .  S
O205        C211   1.277       .  A
O206        C211   1.277       .  A
C207       C1088   1.501       .  S
O208        C210   1.265       .  A
O209       Ni220   1.919       .  S
C210        O216   1.275       .  A
C210        C992   1.476       .  S
C211        C833   1.457       .  S
H212        O213   0.966       .  S
O213       Ni221   1.907       .  S
O213       Ni215   1.913       .  S
O213       Ni220   1.904       .  S
O214       Ni215   1.930       .  S
Ni215       O219   1.922       .  S
Ni215       O217   1.908       .  S
O216       Ni221   1.939       .  S
C218        O219   1.270       .  A
C218        C824   1.477       .  S
O223       Ni229   1.920       .  S
O223        C244   1.270       .  A
O224       Ni247   1.910       .  S
O224        C233   1.268       .  A
O225       Ni229   1.908       .  S
O225       Ni247   1.911       .  S
O225       Ni241   1.936       .  S
O225        H248   0.966       .  S
C226        O243   1.283       .  A
C226        O235   1.275       .  A
C226        C788   1.486       .  S
O227       Ni246   1.925       .  S
O227        C233   1.272       .  A
O228       Ni246   1.898       .  S
O228        C230   1.267       .  A
Ni229       O232   1.927       .  S
Ni229       O234   1.895       .  S
C230        O240   1.273       .  A
C230       C1253   1.479       .  S
O231       Ni247   1.939       .  S
O231        C237   1.277       .  A
O232        C237   1.273       .  A
C233        C809   1.492       .  S
O234        C236   1.267       .  A
O235       Ni246   1.922       .  S
C236        O242   1.276       .  A
C236        C800   1.490       .  S
C237        C956   1.491       .  S
H238        O239   0.966       .  S
O239       Ni247   1.920       .  S
O239       Ni241   1.900       .  S
O239       Ni246   1.897       .  S
O240       Ni241   1.930       .  S
Ni241       O245   1.913       .  S
Ni241       O243   1.948       .  S
O242       Ni247   1.937       .  S
C244        O245   1.271       .  A
C244       C1040   1.468       .  S
O249       Ni255   1.899       .  S
O249        C270   1.261       .  A
O250       Ni273   1.933       .  S
O250        C259   1.276       .  A
O251       Ni255   1.881       .  S
O251       Ni273   1.894       .  S
O251       Ni267   1.927       .  S
O251        H274   0.966       .  S
C252        O269   1.289       .  A
C252        O261   1.283       .  A
C252        C749   1.493       .  S
O253       Ni272   1.905       .  S
O253        C259   1.265       .  A
O254       Ni272   1.886       .  S
O254        C256   1.262       .  A
Ni255       O258   1.905       .  S
Ni255       O260   1.894       .  S
C256        O266   1.277       .  A
C256       C1052   1.482       .  S
O257       Ni273   1.941       .  S
O257        C263   1.286       .  A
O258        C263   1.275       .  A
C259        C761   1.486       .  S
O260        C262   1.264       .  A
O261       Ni272   1.921       .  S
C262        O268   1.277       .  A
C262        C773   1.480       .  S
C263        C896   1.492       .  S
H264        O265   0.966       .  S
O265       Ni273   1.922       .  S
O265       Ni267   1.881       .  S
O265       Ni272   1.866       .  S
O266       Ni267   1.958       .  S
Ni267       O271   1.919       .  S
Ni267       O269   1.943       .  S
O268       Ni273   1.951       .  S
C270        O271   1.273       .  A
C270       C1244   1.466       .  S
C275        C276   1.531       .  S
C275        C281   1.541   1_556  S
C275        C279   1.533       .  S
C275       C1328   1.526       .  S
C276        H283   1.085       .  S
C276        C277   1.364       .  D
C277        C278   1.539   1_556  S
C277        C725   1.478   1_556  S
C278        C282   1.526       .  S
C278        C280   1.532   1_554  S
C278        H284   1.101       .  S
C279        H285   1.085       .  S
C279        C280   1.370       .  D
C280        C737   1.499   1_556  S
C281        H286   1.080       .  S
C281        C282   1.358       .  D
C282        C716   1.462       .  S
C287        C288   1.550       .  S
C287        C293   1.536       .  S
C287        C291   1.533       .  S
C287        C797   1.538       .  S
C288        H295   1.086       .  S
C288        C289   1.362       .  D
C289        C290   1.526   1_554  S
C289        C701   1.473       .  S
C290        C294   1.536       .  S
C290        C292   1.541   1_556  S
C290        H296   1.110       .  S
C291        H297   1.078       .  S
C291        C292   1.365       .  D
C292        C740   1.478       .  S
C293        H298   1.085       .  S
C293        C294   1.372   1_554  D
C294        C764   1.494       .  S
C299        C300   1.535       .  S
C299        C305   1.543       .  S
C299        C303   1.546       .  S
C299        C836   1.532       .  S
C300        H307   1.084       .  S
C300        C301   1.363       .  D
C301        C302   1.536       .  S
C301        C728   1.486       .  S
C302        C306   1.533   1_554  S
C302        C304   1.538       .  S
C302        H308   1.106   1_554  S
C303        H309   1.085       .  S
C303        C304   1.370       .  D
C304        C689   1.497       .  S
C305        H310   1.081       .  S
C305        C306   1.359   1_554  D
C306        C677   1.474       .  S
C311        C312   1.551       .  S
C311        C317   1.528       .  S
C311        C315   1.535       .  S
C311        C857   1.528       .  S
C312        H319   1.081       .  S
C312        C313   1.371       .  D
C313        C314   1.537   1_556  S
C313        C704   1.484       .  S
C314        C318   1.538       .  S
C314        C316   1.545   1_554  S
C314        H320   1.108       .  S
C315        H321   1.083       .  S
C315        C316   1.365       .  D
C316        C692   1.498   1_556  S
C317        H322   1.087       .  S
C317        C318   1.355   1_556  D
C318        C668   1.479       .  S
O323       Ni329   1.914       .  S
O323        C344   1.267       .  A
O324       Ni347   1.950       .  S
O324        C333   1.278       .  A
O325       Ni329   1.887       .  S
O325       Ni347   1.903       .  S
O325       Ni341   1.900       .  S
O325        H348   0.966       .  S
C326        O343   1.278       .  A
C326        O335   1.276       .  A
C326        C680   1.481       .  S
O327       Ni346   1.922       .  S
O327        C333   1.268       .  A
O328       Ni346   1.906       .  S
O328        C330   1.268       .  A
Ni329       O332   1.915       .  S
Ni329       O334   1.889       .  S
C330        O340   1.271       .  A
C330        C920   1.494       .  S
O331       Ni347   1.913       .  S
O331        C337   1.282       .  A
O332        C337   1.276       .  A
C333        C641   1.498       .  S
O334        C336   1.263       .  A
O335       Ni346   1.917       .  S
C336        O342   1.282       .  A
C336        C653   1.480       .  S
C337       C1160   1.484       .  S
H338        O339   0.966       .  S
O339       Ni347   1.916       .  S
O339       Ni341   1.922       .  S
O339       Ni346   1.908       .  S
O340       Ni341   1.934       .  S
Ni341       O345   1.935       .  S
Ni341       O343   1.924       .  S
O342       Ni347   1.961       .  S
C344        O345   1.273       .  A
C344       C1112   1.487       .  S
C349        C350   1.552       .  S
C349        C355   1.531   1_545  S
C349        C353   1.541       .  S
C349        C776   1.547       .  S
C350        H357   1.080       .  S
C350        C351   1.375       .  D
C351        C352   1.543   1_545  S
C351        C632   1.494   1_545  S
C352        C356   1.542       .  S
C352        C354   1.542       .  S
C352        H358   1.110       .  S
C353        H359   1.086       .  S
C353        C354   1.368   1_545  D
C354        C617   1.498       .  S
C355        H360   1.087       .  S
C355        C356   1.359       .  D
C356       C1340   1.482       .  S
C361        C362   1.539       .  S
C361        C367   1.539       .  S
C361        C365   1.537       .  S
C361        C884   1.553       .  S
C362        H369   1.087       .  S
C362        C363   1.367       .  D
C363        C364   1.553   1_545  S
C363        C605   1.501       .  S
C364        C368   1.549       .  S
C364        C366   1.549   1_565  S
C364        H370   1.109       .  S
C365        H371   1.080       .  S
C365        C366   1.366       .  D
C366        C629   1.496   1_545  S
C367        H372   1.086   1_545  S
C367        C368   1.370   1_545  D
C368        C644   1.499       .  S
C373        C374   1.535       .  S
C373        C379   1.536   1_545  S
C373        C377   1.533       .  S
C373        C812   1.538       .  S
C374        H381   1.086       .  S
C374        C375   1.370   1_545  D
C375        C376   1.550       .  S
C375        C620   1.504       .  S
C376        C380   1.550       .  S
C376        C378   1.543       .  S
C376        H382   1.109       .  S
C377        H383   1.087       .  S
C377        C378   1.362   1_545  D
C378        C593   1.482       .  S
C379        H384   1.081       .  S
C379        C380   1.366       .  D
C380        C581   1.486       .  S
C385        C386   1.543       .  S
C385        C391   1.548   1_545  S
C385        C389   1.550       .  S
C385        C572   1.563       .  S
C386        H393   1.086       .  S
C386        C387   1.374       .  D
C387        C388   1.539   1_545  S
C387        C596   1.494   1_545  S
C388        C392   1.533       .  S
C388        C390   1.540   1_565  S
C388        H394   1.110       .  S
C389        H395   1.085       .  S
C389        C390   1.376       .  D
C390        C608   1.498       .  S
C391        H396   1.081       .  S
C391        C392   1.360       .  D
C392        C821   1.481       .  S
O397       Ni403   1.934       .  S
O397        C418   1.272       .  A
O398       Ni421   1.926       .  S
O398        C407   1.272       .  A
O399       Ni403   1.905       .  S
O399       Ni421   1.921       .  S
O399       Ni415   1.905       .  S
O399        H422   0.966       .  S
C400        O417   1.270       .  A
C400        O409   1.274       .  A
C400       C1184   1.456       .  S
O401       Ni420   1.922       .  S
O401        C407   1.269       .  A
O402       Ni420   1.893       .  S
O402        C404   1.268       .  A
Ni403       O406   1.909       .  S
Ni403       O408   1.907       .  S
C404        O414   1.279       .  A
C404        C584   1.491       .  S
O405       Ni421   1.899       .  S
O405        C411   1.270       .  A
O406        C411   1.275       .  A
C407        C980   1.495       .  S
O408        C410   1.270       .  A
O409       Ni420   1.898       .  S
C410        O416   1.274       .  A
C410       C1025   1.485       .  S
C411        C713   1.459       .  S
H412        O413   0.964       .  S
O413       Ni421   1.895       .  S
O413       Ni415   1.910       .  S
O413       Ni420   1.891       .  S
O414       Ni415   1.954       .  S
Ni415       O419   1.919       .  S
Ni415       O417   1.905       .  S
O416       Ni421   1.937       .  S
C418        O419   1.274       .  A
C418        C557   1.487       .  S
C423        C424   1.547       .  S
C423        C429   1.522   1_655  S
C423        C427   1.548       .  S
C423       C1352   1.549       .  S
C424        H431   1.086       .  S
C424        C425   1.367       .  D
C425        C426   1.543   1_655  S
C425        C533   1.498       .  S
C426        C430   1.560       .  S
C426        C428   1.558   1_455  S
C426        H432   1.109       .  S
C427        H433   1.076       .  S
C427        C428   1.369       .  D
C428        C545   1.511   1_655  S
C429        H434   1.087       .  S
C429        C430   1.363       .  D
C430        C656   1.497       .  S
C435        C436   1.533       .  S
C435        C441   1.527       .  S
C435        C439   1.552       .  S
C435        C848   1.541       .  S
C436        H443   1.087       .  S
C436        C437   1.362       .  D
C437        C438   1.546   1_455  S
C437        C521   1.495       .  S
C438        C442   1.558       .  S
C438        C440   1.551   1_655  S
C438        H444   1.109       .  S
C439        H445   1.079       .  S
C439        C440   1.374       .  D
C440        C548   1.505       .  S
C441        H446   1.087       .  S
C441        C442   1.360   1_455  D
C442        C560   1.491       .  S
C447        C448   1.554       .  S
C447        C453   1.523       .  S
C447        C451   1.533       .  S
C447        C752   1.544       .  S
C448        H455   1.084       .  S
C448        C449   1.372       .  D
C449        C450   1.552   1_655  S
C449        C512   1.509   1_655  S
C450        C454   1.555       .  S
C450        C452   1.558   1_455  S
C450        H456   1.109       .  S
C451        H457   1.086       .  S
C451        C452   1.365       .  D
C452        C536   1.498       .  S
C453        H458   1.086       .  S
C453        C454   1.361   1_655  D
C454        C872   1.496       .  S
C459        C460   1.550       .  S
C459        C465   1.539       .  S
C459        C463   1.557       .  S
C459        C497   1.567       .  S
C460        H467   1.086       .  S
C460        C461   1.374       .  D
C461        C462   1.541       .  S
C461        C509   1.493       .  S
C462        C466   1.542   1_455  S
C462        C464   1.536       .  S
C462        H468   1.111   1_455  S
C463        H469   1.080       .  S
C463        C464   1.366       .  D
C464        C524   1.497       .  S
C465        H470   1.086       .  S
C465        C466   1.370   1_455  D
C466        C785   1.495       .  S
O471       Ni477   1.927       .  S
O471        C492   1.271       .  A
O472       Ni495   1.928       .  S
O472        C481   1.272       .  A
O473       Ni477   1.895       .  S
O473       Ni495   1.919       .  S
O473       Ni489   1.912       .  S
O473        H496   0.966       .  S
C474        O491   1.277       .  A
C474        O483   1.274       .  A
C474        C665   1.486       .  S
O475       Ni494   1.933       .  S
O475        C481   1.271       .  A
O476       Ni494   1.908       .  S
O476        C478   1.271       .  A
Ni477       O480   1.926       .  S
Ni477       O482   1.896       .  S
C478        O488   1.283       .  A
C478        C944   1.519       .  S
O479       Ni495   1.897       .  S
O479        C485   1.269       .  A
O480        C485   1.278       .  A
C481        C569   1.496       .  S
O482        C484   1.265       .  A
O483       Ni494   1.915       .  S
C484        O490   1.285       .  A
C484        C500   1.517       .  S
C485       C1208   1.460       .  S
H486        O487   0.966       .  S
O487       Ni495   1.906       .  S
O487       Ni489   1.923       .  S
O487       Ni494   1.901       .  S
O488       Ni489   1.968       .  S
Ni489       O493   1.944       .  S
Ni489       O491   1.914       .  S
O490       Ni495   1.978       .  S
C492        O493   1.278       .  A
C492       C1073   1.501       .  S
C497        C498   1.409       .  A
C497        C502   1.428       .  A
C498        C499   1.398       .  A
C498        H507   1.074       .  S
C499        C500   1.425       .  A
C499        S503   1.809       .  S
C500        C501   1.410       .  A
C501        C502   1.425       .  A
C501        H508   1.082       .  S
C502        S504   1.807       .  S
S503        H506   1.399       .  S
S504        H505   1.406       .  S
C509        C510   1.400       .  A
C509        C514   1.413       .  A
C510        C511   1.405   1_554  A
C510        H519   1.080       .  S
C511        C512   1.416       .  A
C511        S515   1.799       .  S
C512        C513   1.413       .  A
C513        C514   1.411   1_556  A
C513        H520   1.084   1_455  S
C514        S516   1.805       .  S
S515        H518   1.407       .  S
S516        H517   1.404   1_455  S
C521        C522   1.405       .  A
C521        C526   1.412   1_455  A
C522        C523   1.400       .  A
C522        H531   1.084       .  S
C523        C524   1.419       .  A
C523        S527   1.808       .  S
C524        C525   1.408   1_455  A
C525        C526   1.409       .  A
C525        H532   1.084       .  S
C526        S528   1.799       .  S
S527        H530   1.401       .  S
S528        H529   1.404       .  S
C533        C534   1.406   1_655  A
C533        C538   1.411       .  A
C534        C535   1.411       .  A
C534        H543   1.082       .  S
C535        C536   1.416   1_455  A
C535        S539   1.799       .  S
C536        C537   1.403       .  A
C537        C538   1.402       .  A
C537        H544   1.083       .  S
C538        S540   1.798       .  S
S539        H542   1.405       .  S
S540        H541   1.406       .  S
C545        C546   1.406       .  A
C545        C550   1.431   1_455  A
C546        C547   1.410   1_556  A
C546        H555   1.081       .  S
C547        C548   1.420       .  A
C547        S551   1.809       .  S
C548        C549   1.400   1_455  A
C549        C550   1.401   1_554  A
C549        H556   1.082       .  S
C550        S552   1.811       .  S
S551        H554   1.406       .  S
S552        H553   1.396       .  S
C557        C558   1.404       .  A
C557        C562   1.414       .  A
C558        C559   1.404       .  A
C558        H567   1.084       .  S
C559        C560   1.415       .  A
C559        S563   1.801       .  S
C560        C561   1.406       .  A
C561        C562   1.405       .  A
C561        H568   1.082       .  S
C562        S564   1.801       .  S
S563        H566   1.404       .  S
S564        H565   1.407       .  S
C569        C570   1.404       .  A
C569        C574   1.411       .  A
C570        C571   1.417       .  A
C570        H579   1.083       .  S
C571        C572   1.427       .  A
C571        S575   1.803       .  S
C572        C573   1.415       .  A
C573        C574   1.400       .  A
C573        H580   1.075       .  S
C574        S576   1.806       .  S
S575        H578   1.406       .  S
S576        H577   1.408       .  S
C581        C582   1.407       .  A
C581        C586   1.414       .  A
C582        C583   1.411       .  A
C582        H591   1.084       .  S
C583        C584   1.416       .  A
C583        S587   1.797       .  S
C584        C585   1.406       .  A
C585        C586   1.392       .  A
C585        H592   1.085       .  S
C586        S588   1.810       .  S
S587        H590   1.406       .  S
S588        H589   1.402       .  S
C593        C594   1.398       .  A
C593        C598   1.413       .  A
C594        C595   1.404   1_655  A
C594        H603   1.083       .  S
C595        C596   1.418       .  A
C595        S599   1.799       .  S
C596        C597   1.404       .  A
C597        C598   1.400   1_455  A
C597        H604   1.084       .  S
C598        S600   1.804       .  S
S599        H602   1.406   1_565  S
S600        H601   1.407       .  S
C605        C606   1.405       .  A
C605        C610   1.413   1_545  A
C606        C607   1.396       .  A
C606        H615   1.084       .  S
C607        C608   1.414       .  A
C607        S611   1.800       .  S
C608        C609   1.410   1_545  A
C609        C610   1.415       .  A
C609        H616   1.082       .  S
C610        S612   1.803       .  S
S611        H614   1.405       .  S
S612        H613   1.407       .  S
C617        C618   1.406       .  A
C617        C622   1.415   1_565  A
C618        C619   1.410       .  A
C618        H627   1.082       .  S
C619        C620   1.419       .  A
C619        S623   1.800       .  S
C620        C621   1.407   1_565  A
C621        C622   1.397       .  A
C621        H628   1.083       .  S
C622        S624   1.805       .  S
S623        H626   1.399       .  S
S624        H625   1.406       .  S
C629        C630   1.407   1_565  A
C629        C634   1.411       .  A
C630        C631   1.400   1_455  A
C630        H639   1.084       .  S
C631        C632   1.417   1_545  A
C631        S635   1.806       .  S
C632        C633   1.407       .  A
C633        C634   1.406   1_655  A
C633        H640   1.082       .  S
C634        S636   1.802       .  S
S635        H638   1.399   1_545  S
S636        H637   1.406   1_455  S
C641        C642   1.407       .  A
C641        C646   1.420       .  A
C642        C643   1.413       .  A
C642        H651   1.083       .  S
C643        C644   1.416       .  A
C643        S647   1.798       .  S
C644        C645   1.401       .  A
C645        C646   1.404       .  A
C645        H652   1.084       .  S
C646        S648   1.805       .  S
S647        H650   1.405       .  S
S648        H649   1.408       .  S
C653        C654   1.399       .  A
C653        C658   1.416       .  A
C654        C655   1.397       .  A
C654        H663   1.085       .  S
C655        C656   1.417       .  A
C655        S659   1.802       .  S
C656        C657   1.408       .  A
C657        C658   1.414       .  A
C657        H664   1.083       .  S
C658        S660   1.802       .  S
S659        H662   1.403       .  S
S660        H661   1.406       .  S
C665        C666   1.407       .  A
C665        C670   1.421       .  A
C666        C667   1.398       .  A
C666        H675   1.084       .  S
C667        C668   1.413       .  A
C667        S671   1.801       .  S
C668        C669   1.395       .  A
C669        C670   1.392       .  A
C669        H676   1.077       .  S
C670        S672   1.804       .  S
S671        H674   1.402       .  S
S672        H673   1.408       .  S
C677        C678   1.401       .  A
C677        C682   1.409       .  A
C678        C679   1.400       .  A
C678        H687   1.083       .  S
C679        C680   1.415       .  A
C679        S683   1.800       .  S
C680        C681   1.405       .  A
C681        C682   1.396       .  A
C681        H688   1.084       .  S
C682        S684   1.804       .  S
S683        H686   1.406       .  S
S684        H685   1.403       .  S
C689        C690   1.405   1_554  A
C689        C694   1.416   1_565  A
C690        C691   1.398   1_565  A
C690        H699   1.082       .  S
C691        C692   1.419   1_556  A
C691        S695   1.805       .  S
C692        C693   1.403       .  A
C693        C694   1.397       .  A
C693        H700   1.076       .  S
C694        S696   1.795   1_545  S
S695        H698   1.408       .  S
S696        H697   1.402       .  S
C701        C702   1.400   1_554  A
C701        C706   1.405       .  A
C702        C703   1.399       .  A
C702        H711   1.082       .  S
C703        C704   1.417       .  A
C703        S707   1.803       .  S
C704        C705   1.406   1_556  A
C705        C706   1.397       .  A
C705        H712   1.082       .  S
C706        S708   1.803       .  S
S707        H710   1.399       .  S
S708        H709   1.407       .  S
C713        C714   1.398       .  A
C713        C718   1.412       .  A
C714        C715   1.390       .  A
C714        H723   1.083       .  S
C715        C716   1.411       .  A
C715        S719   1.810       .  S
C716        C717   1.397       .  A
C717        C718   1.400       .  A
C717        H724   1.082       .  S
C718        S720   1.807       .  S
S719        H722   1.406       .  S
S720        H721   1.407       .  S
C725        C726   1.401       .  A
C725        C730   1.410   1_554  A
C726        C727   1.391       .  A
C726        H735   1.083       .  S
C727        C728   1.418       .  A
C727        S731   1.799       .  S
C728        C729   1.405   1_554  A
C729        C730   1.392       .  A
C729        H736   1.081       .  S
C730        S732   1.799       .  S
S731        H734   1.400       .  S
S732        H733   1.407       .  S
C737        C738   1.408   1_554  A
C737        C742   1.427       .  A
C738        C739   1.390   1_565  A
C738        H747   1.082       .  S
C739        C740   1.403   1_556  A
C739        S743   1.796       .  S
C740        C741   1.399       .  A
C741        C742   1.397   1_545  A
C741        H748   1.083       .  S
C742        S744   1.807       .  S
S743        H746   1.406       .  S
S744        H745   1.407       .  S
C749        C750   1.402       .  A
C749        C754   1.416       .  A
C750        C751   1.403       .  A
C750        H759   1.084       .  S
C751        C752   1.428       .  A
C751        S755   1.805       .  S
C752        C753   1.411       .  A
C753        C754   1.404       .  A
C753        H760   1.078       .  S
C754        S756   1.811       .  S
S755        H758   1.402       .  S
S756        H757   1.407       .  S
C761        C762   1.409       .  A
C761        C766   1.410       .  A
C762        C763   1.390       .  A
C762        H771   1.083       .  S
C763        C764   1.414       .  A
C763        S767   1.807       .  S
C764        C765   1.409       .  A
C765        C766   1.403       .  A
C765        H772   1.073       .  S
C766        S768   1.801       .  S
S767        H770   1.403       .  S
S768        H769   1.408       .  S
C773        C774   1.399       .  A
C773        C778   1.408       .  A
C774        C775   1.405       .  A
C774        H783   1.083       .  S
C775        C776   1.427       .  A
C775        S779   1.813       .  S
C776        C777   1.414       .  A
C777        C778   1.405       .  A
C777        H784   1.076       .  S
C778        S780   1.801       .  S
S779        H782   1.406       .  S
S780        H781   1.405       .  S
C785        C786   1.406       .  A
C785        C790   1.415       .  A
C786        C787   1.409       .  A
C786        H795   1.084       .  S
C787        C788   1.414       .  A
C787        S791   1.801       .  S
C788        C789   1.404       .  A
C789        C790   1.404       .  A
C789        H796   1.084       .  S
C790        S792   1.803       .  S
S791        H794   1.406       .  S
S792        H793   1.406       .  S
C797        C798   1.406       .  A
C797        C802   1.423       .  A
C798        C799   1.394       .  A
C798        H807   1.084       .  S
C799        C800   1.419       .  A
C799        S803   1.805       .  S
C800        C801   1.405       .  A
C801        C802   1.404       .  A
C801        H808   1.084       .  S
C802        S804   1.801       .  S
S803        H806   1.408       .  S
S804        H805   1.408       .  S
C809        C810   1.406       .  A
C809        C814   1.413       .  A
C810        C811   1.398       .  A
C810        H819   1.082       .  S
C811        C812   1.422       .  A
C811        S815   1.815       .  S
C812        C813   1.414       .  A
C813        C814   1.402       .  A
C813        H820   1.075       .  S
C814        S816   1.801       .  S
S815        H818   1.406       .  S
S816        H817   1.408       .  S
C821        C822   1.400       .  A
C821        C826   1.413       .  A
C822        C823   1.400       .  A
C822        H831   1.084       .  S
C823        C824   1.415       .  A
C823        S827   1.804       .  S
C824        C825   1.403       .  A
C825        C826   1.402       .  A
C825        H832   1.084       .  S
C826        S828   1.799       .  S
S827        H830   1.407       .  S
S828        H829   1.403       .  S
C833        C834   1.392       .  A
C833        C838   1.403       .  A
C834        C835   1.395       .  A
C834        H843   1.083       .  S
C835        C836   1.425       .  A
C835        S839   1.805       .  S
C836        C837   1.414       .  A
C837        C838   1.394       .  A
C837        H844   1.075       .  S
C838        S840   1.802       .  S
S839        H842   1.406       .  S
S840        H841   1.406       .  S
C845        C846   1.396       .  A
C845        C850   1.410       .  A
C846        C847   1.401       .  A
C846        H855   1.083       .  S
C847        C848   1.427       .  A
C847        S851   1.813       .  S
C848        C849   1.413       .  A
C849        C850   1.402       .  A
C849        H856   1.076       .  S
C850        S852   1.807       .  S
S851        H854   1.407       .  S
S852        H853   1.401       .  S
C857        C858   1.412       .  A
C857        C862   1.427       .  A
C858        C859   1.398       .  A
C858        H867   1.077       .  S
C859        C860   1.407       .  A
C859        S863   1.804       .  S
C860        C861   1.396       .  A
C861        C862   1.394       .  A
C861        H868   1.083       .  S
C862        S864   1.815       .  S
S863        H866   1.407       .  S
S864        H865   1.407       .  S
C869        C870   1.400       .  A
C869        C874   1.416       .  A
C870        C871   1.403       .  A
C870        H879   1.084       .  S
C871        C872   1.423       .  A
C871        S875   1.805       .  S
C872        C873   1.400       .  A
C873        C874   1.401       .  A
C873        H880   1.079       .  S
C874        S876   1.804       .  S
S875        H878   1.407       .  S
S876        H877   1.407       .  S
C881        C882   1.403       .  A
C881        C886   1.420       .  A
C882        C883   1.409       .  A
C882        H891   1.084       .  S
C883        C884   1.428       .  A
C883        S887   1.802       .  S
C884        C885   1.408       .  A
C885        C886   1.404       .  A
C885        H892   1.082       .  S
C886        S888   1.809       .  S
S887        H890   1.407       .  S
S888        H889   1.407       .  S
C893        C894   1.395       .  A
C893        C898   1.413       .  A
C894        C895   1.402       .  A
C894        H903   1.083       .  S
C895        C896   1.427       .  A
C895        S899   1.811       .  S
C896        C897   1.406       .  A
C897        C898   1.397       .  A
C897        H904   1.083       .  S
C898        S900   1.805       .  S
S899        H902   1.407       .  S
S900        H901   1.407       .  S
C905        C906   1.417       .  A
C905        C910   1.419       .  A
C906        C907   1.403       .  A
C906        H915   1.074       .  S
C907        C908   1.410       .  A
C907        S911   1.794       .  S
C908        C909   1.409       .  A
C909        C910   1.399       .  A
C909        H916   1.080       .  S
C910        S912   1.812       .  S
S911        H914   1.407       .  S
S912        H913   1.406       .  S
C917        C918   1.413       .  A
C917        C922   1.421       .  A
C918        C919   1.402       .  A
C918        H927   1.076       .  S
C919        C920   1.414       .  A
C919        S923   1.802       .  S
C920        C921   1.408       .  A
C921        C922   1.405       .  A
C921        H928   1.083       .  S
C922        S924   1.812       .  S
S923        H926   1.402       .  S
S924        H925   1.407       .  S
C929        C930   1.405       .  A
C929        C934   1.413       .  A
C930        C931   1.398   1_565  A
C930        H939   1.082       .  S
C931        C932   1.413       .  A
C931        S935   1.807       .  S
C932        C933   1.408       .  A
C933        C934   1.408   1_545  A
C933        H940   1.084       .  S
C934        S936   1.802       .  S
S935        H938   1.407   1_545  S
S936        H937   1.406       .  S
C941        C942   1.411       .  A
C941        C946   1.412       .  A
C942        C943   1.414       .  A
C942        H951   1.084       .  S
C943        C944   1.420       .  A
C943        S947   1.799       .  S
C944        C945   1.416       .  A
C945        C946   1.410       .  A
C945        H952   1.082       .  S
C946        S948   1.806       .  S
S947        H950   1.407       .  S
S948        H949   1.407       .  S
C953        C954   1.419       .  A
C953        C958   1.426       .  A
C954        C955   1.408       .  A
C954        H963   1.074       .  S
C955        C956   1.410       .  A
C955        S959   1.805       .  S
C956        C957   1.402       .  A
C957        C958   1.411       .  A
C957        H964   1.083       .  S
C958        S960   1.808       .  S
S959        H962   1.402       .  S
S960        H961   1.407       .  S
C965        C966   1.400       .  A
C965        C970   1.410       .  A
C966        C967   1.402       .  A
C966        H975   1.080       .  S
C967        C968   1.418       .  A
C967        S971   1.792       .  S
C968        C969   1.412       .  A
C969        C970   1.411       .  A
C969        H976   1.082       .  S
C970        S972   1.806       .  S
S971        H974   1.401       .  S
S972        H973   1.407       .  S
C977        C978   1.418       .  A
C977        C982   1.424       .  A
C978        C979   1.403       .  A
C978        H987   1.073       .  S
C979        C980   1.410       .  A
C979        S983   1.802       .  S
C980        C981   1.406       .  A
C981        C982   1.407       .  A
C981        H988   1.082       .  S
C982        S984   1.812       .  S
S983        H986   1.407       .  S
S984        H985   1.406       .  S
C989        C990   1.411       .  A
C989        C994   1.422       .  A
C990        C991   1.396       .  A
C990        H999   1.083       .  S
C991        C992   1.409       .  A
C991        S995   1.804       .  S
C992        C993   1.403       .  A
C993        C994   1.407       .  A
C993       H1000   1.084       .  S
C994        S996   1.798       .  S
S995        H998   1.400       .  S
S996        H997   1.394       .  S
C1001      C1002   1.396       .  A
C1001      C1006   1.418       .  A
C1002      C1003   1.404       .  A
C1002      H1011   1.080       .  S
C1003      C1004   1.417       .  A
C1003      S1007   1.799       .  S
C1004      C1005   1.409       .  A
C1005      C1006   1.408       .  A
C1005      H1012   1.084       .  S
C1006      S1008   1.809       .  S
S1007      H1010   1.406       .  S
S1008      H1009   1.401       .  S
C1013      C1014   1.413       .  A
C1013      C1018   1.425       .  A
C1014      C1015   1.404   1_565  A
C1014      H1023   1.083       .  S
C1015      C1016   1.414       .  A
C1015      S1019   1.802       .  S
C1016      C1017   1.404       .  A
C1017      C1018   1.413   1_545  A
C1017      H1024   1.078       .  S
C1018      S1020   1.801       .  S
S1019      H1022   1.406       .  S
S1020      H1021   1.406       .  S
C1025      C1026   1.405       .  A
C1025      C1030   1.410       .  A
C1026      C1027   1.407       .  A
C1026      H1035   1.083       .  S
C1027      C1028   1.414       .  A
C1027      S1031   1.799       .  S
C1028      C1029   1.411       .  A
C1029      C1030   1.399       .  A
C1029      H1036   1.084       .  S
C1030      S1032   1.798       .  S
S1031      H1034   1.407       .  S
S1032      H1033   1.405       .  S
C1037      C1038   1.411       .  A
C1037      C1042   1.428       .  A
C1038      C1039   1.393       .  A
C1038      H1047   1.081       .  S
C1039      C1040   1.406       .  A
C1039      S1043   1.806       .  S
C1040      C1041   1.399       .  A
C1041      C1042   1.406       .  A
C1041      H1048   1.084       .  S
C1042      S1044   1.805       .  S
S1043      H1046   1.407       .  S
S1044      H1045   1.403       .  S
C1049      C1050   1.410       .  A
C1049      C1054   1.431       .  A
C1050      C1051   1.395       .  A
C1050      H1059   1.082       .  S
C1051      C1052   1.409       .  A
C1051      S1055   1.804       .  S
C1052      C1053   1.402       .  A
C1053      C1054   1.413       .  A
C1053      H1060   1.084       .  S
C1054      S1056   1.802       .  S
S1055      H1058   1.407       .  S
S1056      H1057   1.403       .  S
C1061      C1062   1.405       .  A
C1061      C1066   1.413       .  A
C1062      C1063   1.401   1_556  A
C1062      H1071   1.084       .  S
C1063      C1064   1.418       .  A
C1063      S1067   1.806       .  S
C1064      C1065   1.404       .  A
C1065      C1066   1.406   1_554  A
C1065      H1072   1.079       .  S
C1066      S1068   1.800       .  S
S1067      H1070   1.400       .  S
S1068      H1069   1.405       .  S
C1073      C1074   1.407       .  A
C1073      C1078   1.416       .  A
C1074      C1075   1.401       .  A
C1074      H1083   1.084       .  S
C1075      C1076   1.416       .  A
C1075      S1079   1.805       .  S
C1076      C1077   1.409       .  A
C1077      C1078   1.416       .  A
C1077      H1084   1.083       .  S
C1078      S1080   1.799       .  S
S1079      H1082   1.400       .  S
S1080      H1081   1.407       .  S
C1085      C1086   1.418       .  A
C1085      C1090   1.423       .  A
C1086      C1087   1.408       .  A
C1086      H1095   1.075       .  S
C1087      C1088   1.414       .  A
C1087      S1091   1.799       .  S
C1088      C1089   1.405       .  A
C1089      C1090   1.403       .  A
C1089      H1096   1.082       .  S
C1090      S1092   1.808       .  S
S1091      H1094   1.407       .  S
S1092      H1093   1.407       .  S
C1097      C1098   1.401       .  A
C1097      C1102   1.410       .  A
C1098      C1099   1.407       .  A
C1098      H1107   1.083       .  S
C1099      C1100   1.416       .  A
C1099      S1103   1.801       .  S
C1100      C1101   1.410       .  A
C1101      C1102   1.402       .  A
C1101      H1108   1.084       .  S
C1102      S1104   1.805       .  S
S1103      H1106   1.406       .  S
S1104      H1105   1.405       .  S
C1109      C1110   1.400       .  A
C1109      C1114   1.413       .  A
C1110      C1111   1.397       .  A
C1110      H1119   1.084       .  S
C1111      C1112   1.417       .  A
C1111      S1115   1.804       .  S
C1112      C1113   1.407       .  A
C1113      C1114   1.408       .  A
C1113      H1120   1.084       .  S
C1114      S1116   1.800       .  S
S1115      H1118   1.407       .  S
S1116      H1117   1.404       .  S
C1121      C1122   1.415       .  A
C1121      C1126   1.421       .  A
C1122      C1123   1.403       .  A
C1122      H1131   1.075       .  S
C1123      C1124   1.412       .  A
C1123      S1127   1.794       .  S
C1124      C1125   1.409       .  A
C1125      C1126   1.406       .  A
C1125      H1132   1.082       .  S
C1126      S1128   1.812       .  S
S1127      H1130   1.407       .  S
S1128      H1129   1.407       .  S
C1133      C1134   1.401       .  A
C1133      C1138   1.417       .  A
C1134      C1135   1.405       .  A
C1134      H1143   1.083       .  S
C1135      C1136   1.417       .  A
C1135      S1139   1.797       .  S
C1136      C1137   1.404       .  A
C1137      C1138   1.399       .  A
C1137      H1144   1.084       .  S
C1138      S1140   1.805       .  S
S1139      H1142   1.407       .  S
S1140      H1141   1.404       .  S
C1145      C1146   1.411       .  A
C1145      C1150   1.418       .  A
C1146      C1147   1.409   1_556  A
C1146      H1155   1.081       .  S
C1147      C1148   1.417       .  A
C1147      S1151   1.808       .  S
C1148      C1149   1.409       .  A
C1149      C1150   1.407   1_554  A
C1149      H1156   1.081       .  S
C1150      S1152   1.806       .  S
S1151      H1154   1.406       .  S
S1152      H1153   1.406       .  S
C1157      C1158   1.408       .  A
C1157      C1162   1.422       .  A
C1158      C1159   1.392       .  A
C1158      H1167   1.074       .  S
C1159      C1160   1.418       .  A
C1159      S1163   1.805       .  S
C1160      C1161   1.402       .  A
C1161      C1162   1.398       .  A
C1161      H1168   1.082       .  S
C1162      S1164   1.810       .  S
S1163      H1166   1.408       .  S
S1164      H1165   1.407       .  S
C1169      C1170   1.402       .  A
C1169      C1174   1.417       .  A
C1170      C1171   1.396       .  A
C1170      H1179   1.084       .  S
C1171      C1172   1.417       .  A
C1171      S1175   1.803       .  S
C1172      C1173   1.404       .  A
C1173      C1174   1.394       .  A
C1173      H1180   1.084       .  S
C1174      S1176   1.802       .  S
S1175      H1178   1.408       .  S
S1176      H1177   1.403       .  S
C1181      C1182   1.399       .  A
C1181      C1186   1.414       .  A
C1182      C1183   1.395       .  A
C1182      H1191   1.084       .  S
C1183      C1184   1.411       .  A
C1183      S1187   1.800       .  S
C1184      C1185   1.398       .  A
C1185      C1186   1.385       .  A
C1185      H1192   1.085       .  S
C1186      S1188   1.809       .  S
S1187      H1190   1.406       .  S
S1188      H1189   1.397       .  S
C1193      C1194   1.399       .  A
C1193      C1198   1.410       .  A
C1194      C1195   1.400   1_655  A
C1194      H1203   1.084       .  S
C1195      C1196   1.414       .  A
C1195      S1199   1.800       .  S
C1196      C1197   1.401       .  A
C1197      C1198   1.390   1_455  A
C1197      H1204   1.083       .  S
C1198      S1200   1.808       .  S
S1199      H1202   1.401       .  S
S1200      H1201   1.406       .  S
C1205      C1206   1.414       .  A
C1205      C1210   1.422       .  A
C1206      C1207   1.400       .  A
C1206      H1215   1.076       .  S
C1207      C1208   1.407       .  A
C1207      S1211   1.807       .  S
C1208      C1209   1.393       .  A
C1209      C1210   1.391       .  A
C1209      H1216   1.078       .  S
C1210      S1212   1.815       .  S
S1211      H1214   1.404       .  S
S1212      H1213   1.407       .  S
C1217      C1218   1.400       .  A
C1217      C1222   1.410       .  A
C1218      C1219   1.397       .  A
C1218      H1227   1.082       .  S
C1219      C1220   1.409       .  A
C1219      S1223   1.804       .  S
C1220      C1221   1.399       .  A
C1221      C1222   1.395       .  A
C1221      H1228   1.084       .  S
C1222      S1224   1.800       .  S
S1223      H1226   1.406       .  S
S1224      H1225   1.404       .  S
C1229      C1230   1.399       .  A
C1229      C1234   1.404       .  A
C1230      C1231   1.402       .  A
C1230      H1239   1.079       .  S
C1231      C1232   1.416       .  A
C1231      S1235   1.804       .  S
C1232      C1233   1.409       .  A
C1233      C1234   1.399       .  A
C1233      H1240   1.083       .  S
C1234      S1236   1.806       .  S
S1235      H1238   1.407       .  S
S1236      H1237   1.407       .  S
C1241      C1242   1.415       .  A
C1241      C1246   1.417       .  A
C1242      C1243   1.392       .  A
C1242      H1251   1.078       .  S
C1243      C1244   1.404       .  A
C1243      S1247   1.805       .  S
C1244      C1245   1.404       .  A
C1245      C1246   1.399       .  A
C1245      H1252   1.083       .  S
C1246      S1248   1.812       .  S
S1247      H1250   1.408       .  S
S1248      H1249   1.406       .  S
C1253      C1254   1.404       .  A
C1253      C1258   1.416       .  A
C1254      C1255   1.399       .  A
C1254      H1263   1.084       .  S
C1255      C1256   1.412       .  A
C1255      S1259   1.804       .  S
C1256      C1257   1.400       .  A
C1257      C1258   1.401       .  A
C1257      H1264   1.083       .  S
C1258      S1260   1.810       .  S
S1259      H1262   1.407       .  S
S1260      H1261   1.407       .  S
C1265      C1266   1.399       .  A
C1265      C1270   1.414       .  A
C1266      C1267   1.397       .  A
C1266      H1275   1.083       .  S
C1267      C1268   1.413       .  A
C1267      S1271   1.805       .  S
C1268      C1269   1.400       .  A
C1269      C1270   1.381       .  A
C1269      H1276   1.083       .  S
C1270      S1272   1.810       .  S
S1271      H1274   1.406       .  S
S1272      H1273   1.404       .  S
C1277      C1278   1.402       .  A
C1277      C1282   1.408       .  A
C1278      C1279   1.405   1_655  A
C1278      H1287   1.083       .  S
C1279      C1280   1.417       .  A
C1279      S1283   1.807       .  S
C1280      C1281   1.398       .  A
C1281      C1282   1.391   1_455  A
C1281      H1288   1.076       .  S
C1282      S1284   1.799       .  S
S1283      H1286   1.407   1_455  S
S1284      H1285   1.406       .  S
C1289      C1290   1.401       .  A
C1289      C1294   1.407       .  A
C1290      C1291   1.393       .  A
C1290      H1299   1.080       .  S
C1291      C1292   1.415       .  A
C1291      S1295   1.811       .  S
C1292      C1293   1.412       .  A
C1293      C1294   1.388       .  A
C1293      H1300   1.083       .  S
C1294      S1296   1.805       .  S
S1295      H1298   1.407       .  S
S1296      H1297   1.407       .  S
C1301      C1302   1.401       .  A
C1301      C1306   1.412       .  A
C1302      C1303   1.407       .  A
C1302      H1311   1.084       .  S
C1303      C1304   1.423       .  A
C1303      S1307   1.802       .  S
C1304      C1305   1.400       .  A
C1305      C1306   1.397       .  A
C1305      H1312   1.079       .  S
C1306      S1308   1.799       .  S
S1307      H1310   1.408       .  S
S1308      H1309   1.406       .  S
C1313      C1314   1.411       .  A
C1313      C1318   1.412       .  A
C1314      C1315   1.407       .  A
C1314      H1323   1.083       .  S
C1315      C1316   1.410       .  A
C1315      S1319   1.807       .  S
C1316      C1317   1.409       .  A
C1317      C1318   1.402       .  A
C1317      H1324   1.084       .  S
C1318      S1320   1.799       .  S
S1319      H1322   1.406       .  S
S1320      H1321   1.406       .  S
C1325      C1326   1.400       .  A
C1325      C1330   1.420       .  A
C1326      C1327   1.397       .  A
C1326      H1335   1.079       .  S
C1327      C1328   1.421       .  A
C1327      S1331   1.808       .  S
C1328      C1329   1.406       .  A
C1329      C1330   1.387       .  A
C1329      H1336   1.073       .  S
C1330      S1332   1.810       .  S
S1331      H1334   1.407       .  S
S1332      H1333   1.403       .  S
C1337      C1338   1.405       .  A
C1337      C1342   1.423       .  A
C1338      C1339   1.403       .  A
C1338      H1347   1.084       .  S
C1339      C1340   1.412       .  A
C1339      S1343   1.796       .  S
C1340      C1341   1.395       .  A
C1341      C1342   1.398       .  A
C1341      H1348   1.083       .  S
C1342      S1344   1.800       .  S
S1343      H1346   1.406       .  S
S1344      H1345   1.404       .  S
C1349      C1350   1.395       .  A
C1349      C1354   1.408       .  A
C1350      C1351   1.408       .  A
C1350      H1359   1.083       .  S
C1351      C1352   1.430       .  A
C1351      S1355   1.807       .  S
C1352      C1353   1.413       .  A
C1353      C1354   1.398       .  A
C1353      H1360   1.074       .  S
C1354      S1356   1.807       .  S
S1355      H1358   1.406       .  S
S1356      H1357   1.407       .  S
