geometry optimzed in LAMMPS
_audit_creation_date              2020-11-30 
_audit_creation_method            'lammps2cif' 
_symmetry_space_group_name_H-M    'P1' 
_symmetry_Int_Tables_number       1 
_symmetry_cell_setting            triclinic 
loop_ 
_symmetry_equiv_pos_as_xyz 
  x,y,z 
_cell_length_a                    45.06422288 
_cell_length_b                    45.183696017752226 
_cell_length_c                    42.41556357483106 
_cell_angle_alpha                 89.9954277863276 
_cell_angle_beta                  90.03168704420206 
_cell_angle_gamma                 89.90162684671809 
loop_ 
_atom_site_label 
_atom_site_type_symbol 
_atom_site_fract_x 
_atom_site_fract_y 
_atom_site_fract_z 
_atom_site_charge 
O1          O  0.54267105  0.27606816  0.05154545    -0.72200
O2          O  0.47519697  0.27701605  0.98929481    -0.73100
O3          O  0.53802356  0.27754907  0.98511164    -0.61800
O4          O  0.47947303  0.27539070  0.05654142    -0.70200
O5          O  0.47914120  0.32459309  0.05734889    -0.69700
O6          O  0.53755739  0.32667071  0.98698208    -0.61000
O7          O  0.47546033  0.32615614  0.99057249    -0.73500
O8          O  0.54066562  0.32519805  0.05313464    -0.72300
Cu9        Cu  0.50874022  0.27467975  0.02057438     1.04600
Cu10       Cu  0.50808128  0.32729290  0.02201225     1.04300
C11         C  0.55208785  0.30079514  0.06214963     0.94000
C12         C  0.46533070  0.30193867  0.97956129     0.93200
C13         C  0.54725651  0.30256856  0.97512837     0.85300
C14         C  0.47075529  0.29981272  0.06859348     0.91600
O15         O  0.22571283  0.55602706  0.97799427    -0.72200
O16         O  0.22821628  0.62748340  0.03228716    -0.73100
O17         O  0.22887735  0.56654133  0.04368293    -0.61800
O18         O  0.22481503  0.61657596  0.96645229    -0.70200
O19         O  0.17559230  0.61761837  0.96876812    -0.69700
O20         O  0.17965739  0.56478847  0.04532987    -0.61000
O21         O  0.17898415  0.62766537  0.03507922    -0.73500
O22         O  0.17645542  0.55570007  0.97873824    -0.72300
Cu23       Cu  0.22851665  0.59171264  0.00506401     1.04600
Cu24       Cu  0.17583282  0.59149124  0.00721091     1.04300
C25         C  0.20107434  0.54500833  0.96899183     0.94000
C26         C  0.20413947  0.63871185  0.04256547     0.93200
C27         C  0.20498140  0.55743458  0.05652311     0.85300
C28         C  0.19981702  0.62440957  0.95494885     0.91600
O29         O  0.52219850  0.87132352  0.01999387    -0.72200
O30         O  0.45813837  0.85721362  0.95652659    -0.73100
O31         O  0.52005919  0.86005427  0.95395971    -0.61800
O32         O  0.46029465  0.86776842  0.02234319    -0.70200
O33         O  0.45704407  0.91621650  0.01417137    -0.69700
O34         O  0.51785436  0.90822771  0.94398320    -0.61000
O35         O  0.45489261  0.90570321  0.94843993    -0.73500
O36         O  0.52061480  0.91962763  0.01036707    -0.72300
Cu37       Cu  0.49032264  0.86249022  0.98853560     1.04600
Cu38       Cu  0.48754456  0.91423637  0.97895742     1.04300
C39         C  0.53134382  0.89758454  0.02539635     0.94000
C40         C  0.44653083  0.87934736  0.94240025     0.93200
C41         C  0.52793920  0.88239581  0.93762133     0.85300
C42         C  0.44916728  0.89291418  0.02914998     0.91600
O43         O  0.81682980  0.56625909  0.95668916    -0.72200
O44         O  0.82357723  0.63502452  0.01667366    -0.73100
O45         O  0.82498619  0.57221744  0.02291515    -0.61800
O46         O  0.81496819  0.62888224  0.95030499    -0.70200
O47         O  0.76617271  0.62792407  0.95753927    -0.69700
O48         O  0.77603673  0.57229795  0.02918549    -0.61000
O49         O  0.77475934  0.63356898  0.02368580    -0.73500
O50         O  0.76792953  0.56625648  0.96314714    -0.72300
Cu51       Cu  0.82189090  0.60063937  0.98634750     1.04600
Cu52       Cu  0.76959634  0.60001436  0.99357882     1.04300
C53         C  0.79125721  0.55559431  0.95038179     0.94000
C54         C  0.80011144  0.64459118  0.03018383     0.93200
C55         C  0.80180949  0.56387681  0.03780443     0.85300
C56         C  0.78880620  0.63687427  0.94226177     0.91600
O57         O  0.25944599  0.05712629  0.53664208    -0.72200
O58         O  0.25894518  0.13077621  0.48372723    -0.73100
O59         O  0.25223437  0.06943675  0.47186998    -0.61800
O60         O  0.26611235  0.11799764  0.54900334    -0.70200
O61         O  0.31485346  0.11532723  0.54156357    -0.69700
O62         O  0.30086425  0.06462410  0.46516345    -0.61000
O63         O  0.30753166  0.12656922  0.47639588    -0.73500
O64         O  0.30818852  0.05320486  0.53038343    -0.72300
Cu65       Cu  0.25751653  0.09403536  0.51053114     1.04600
Cu66       Cu  0.30959609  0.08980173  0.50312469     1.04300
C67         C  0.28383776  0.04352282  0.54185732     0.94000
C68         C  0.28309428  0.14024306  0.47160134     0.93200
C69         C  0.27427274  0.05882531  0.45671995     0.85300
C70         C  0.29253167  0.12443868  0.55736840     0.91600
O71         O  0.95971416  0.81534602  0.52074048    -0.72200
O72         O  0.02008742  0.82092703  0.45253402    -0.73100
O73         O  0.95808230  0.82034749  0.45417619    -0.61800
O74         O  0.02139626  0.81622831  0.51885504    -0.70200
O75         O  0.02199655  0.76716651  0.51567915    -0.69700
O76         O  0.95870216  0.77153021  0.44833217    -0.61000
O77         O  0.02185862  0.77196656  0.44853898    -0.73500
O78         O  0.95856698  0.76643633  0.51556322    -0.72300
Cu79       Cu  0.98978303  0.81981035  0.48669595     1.04600
Cu80       Cu  0.99029491  0.76743052  0.48190929     1.04300
C81         C  0.94973080  0.79014920  0.52909828     0.94000
C82         C  0.03043940  0.79757043  0.43961532     0.93200
C83         C  0.94874893  0.79700616  0.44048670     0.85300
C84         C  0.03144284  0.79126154  0.52790248     0.91600
O85         O  0.68371522  0.13793554  0.46159358    -0.72200
O86         O  0.67615961  0.06739607  0.51843944    -0.73100
O87         O  0.67525419  0.13031311  0.52751354    -0.61800
O88         O  0.68546188  0.07545823  0.45255745    -0.70200
O89         O  0.73415230  0.07568518  0.46039205    -0.69700
O90         O  0.72406187  0.12884787  0.53462843    -0.61000
O91         O  0.72494398  0.06750891  0.52596777    -0.73500
O92         O  0.73250302  0.13752991  0.46895281    -0.72300
Cu93       Cu  0.67836263  0.10277069  0.48977093     1.04600
Cu94       Cu  0.73054886  0.10242115  0.49771954     1.04300
C95         C  0.70937135  0.14867252  0.45612463     0.94000
C96         C  0.69935537  0.05649245  0.53129640     0.93200
C97         C  0.69841897  0.13788972  0.54297905     0.85300
C98         C  0.71160215  0.06710774  0.44468363     0.91600
O99         O  0.97679531  0.41283794  0.55120806    -0.72200
O100        O  0.04436541  0.41652471  0.48809873    -0.73100
O101        O  0.98096423  0.41476586  0.48404428    -0.61800
O102        O  0.04051113  0.41532177  0.55476728    -0.70200
O103        O  0.04080379  0.36613186  0.55456617    -0.69700
O104        O  0.98322117  0.36569658  0.48282597    -0.61000
O105        O  0.04540537  0.36740838  0.48817988    -0.73500
O106        O  0.97888178  0.36375101  0.54976081    -0.72300
Cu107      Cu  0.01051994  0.41667517  0.51960172     1.04600
Cu108      Cu  0.01208681  0.36412177  0.51877144     1.04300
C109        C  0.96755181  0.38753863  0.56059364     0.94000
C110        C  0.05552485  0.39210856  0.47840319     0.93200
C111        C  0.97314328  0.39008966  0.47193398     0.85300
C112        C  0.04996886  0.39072135  0.56568457     0.91600
N113        N  0.28440118  0.37752466  0.23489132    -0.35800
N114        N  0.30388423  0.33219901  0.27995598    -0.56400
N115        N  0.26153232  0.35545336  0.32381261    -0.35800
N116        N  0.24356523  0.40198907  0.28042200    -0.56400
C117        C  0.30916696  0.36689985  0.22084976     0.27800
C118        C  0.27789813  0.40384402  0.22117864     0.27800
C119        C  0.27678612  0.33655517  0.34253261     0.27800
C120        C  0.24525904  0.37305900  0.34286510     0.27800
C121        C  0.31659051  0.32173971  0.25346140     0.36400
C122        C  0.30422231  0.30972099  0.30093034     0.36400
C123        C  0.23482418  0.41742130  0.25475779     0.36400
C124        C  0.22180284  0.40488818  0.30206949     0.36400
C125        C  0.31847273  0.38651140  0.19780299    -0.21100
C126        C  0.29870405  0.40969136  0.19785388    -0.21100
C127        C  0.27059243  0.34260326  0.37388538    -0.21100
C128        C  0.25061715  0.36564510  0.37409741    -0.21100
C129        C  0.32563941  0.29267044  0.25773680    -0.22200
C130        C  0.31757763  0.28495457  0.28785195    -0.22200
C131        C  0.20762353  0.43080197  0.26040253    -0.22200
C132        C  0.19920751  0.42256105  0.29030019    -0.22200
C133        C  0.32204557  0.33884176  0.22639690    -0.17500
C134        C  0.25236824  0.42129430  0.22748513    -0.17500
C135        C  0.22278056  0.39266188  0.33266662    -0.17500
C136        C  0.29308816  0.31179010  0.33187018    -0.17500
H137        H  0.33717027  0.38405368  0.18200795     0.15400
H138        H  0.29939407  0.42821348  0.18178043     0.15400
H139        H  0.27876372  0.33087492  0.39439190     0.15400
H140        H  0.24031001  0.37513663  0.39481478     0.15400
H141        H  0.33686081  0.27853538  0.24092056     0.13700
H142        H  0.32116156  0.26360741  0.29877168     0.13700
H143        H  0.19515558  0.44509459  0.24478398     0.13700
H144        H  0.17898031  0.42916279  0.30212066     0.13700
H145        H  0.27075384  0.36567158  0.25003911     0.26900
H146        H  0.25839991  0.35315689  0.29967462     0.26900
N147        N  0.74662804  0.38416503  0.21980949    -0.35800
N148        N  0.79480251  0.40367334  0.26083866    -0.56400
N149        N  0.78474704  0.35123161  0.29939971    -0.35800
N150        N  0.73580699  0.33261371  0.25955664    -0.56400
C151        C  0.75452440  0.40921559  0.20445684     0.27800
C152        C  0.72361146  0.37203958  0.20389432     0.27800
C153        C  0.80286078  0.36745169  0.31811818     0.27800
C154        C  0.77125336  0.33103210  0.31817487     0.27800
C155        C  0.79808452  0.42409423  0.23790268     0.36400
C156        C  0.81824560  0.40663548  0.28037653     0.36400
C157        C  0.71659892  0.32599616  0.23622815     0.36400
C158        C  0.73600952  0.30931164  0.27940213     0.36400
C159        C  0.73631892  0.41290358  0.17832972    -0.21100
C160        C  0.71693094  0.38960087  0.17798893    -0.21100
C161        C  0.80082962  0.35746774  0.34894338    -0.21100
C162        C  0.78083920  0.33462564  0.34900629    -0.21100
C163        C  0.82349070  0.44063211  0.24334142    -0.22200
C164        C  0.83645475  0.42932225  0.27006344    -0.22200
C165        C  0.70432636  0.29828018  0.24140827    -0.22200
C166        C  0.71693725  0.28753901  0.26853585    -0.22200
C167        C  0.77855438  0.42816699  0.21216102    -0.17500
C168        C  0.70901664  0.34506105  0.21108472    -0.17500
C169        C  0.75155977  0.30848446  0.30824851    -0.17500
C170        C  0.82250972  0.38998976  0.30811890    -0.17500
H171        H  0.73729175  0.43010900  0.16063146     0.15400
H172        H  0.70038008  0.38569407  0.15998264     0.15400
H173        H  0.81251565  0.36587029  0.36936083     0.15400
H174        H  0.77412711  0.32206653  0.36951762     0.15400
H175        H  0.83202422  0.45876560  0.22938397     0.13700
H176        H  0.85679729  0.43712637  0.28072373     0.13700
H177        H  0.68792449  0.28690901  0.22728907     0.13700
H178        H  0.71212099  0.26634513  0.27921635     0.13700
H179        H  0.75663281  0.37562815  0.23958086     0.26900
H180        H  0.78461394  0.35144738  0.27491315     0.26900
N181        N  0.74841716  0.33611821  0.81346232    -0.35800
N182        N  0.72889116  0.29106865  0.76959849    -0.56400
N183        N  0.77304858  0.31270450  0.72480291    -0.35800
N184        N  0.79439921  0.35560103  0.77073767    -0.56400
C185        C  0.73090758  0.31949277  0.83225107     0.27800
C186        C  0.76432711  0.35411401  0.83246184     0.27800
C187        C  0.76330737  0.28822630  0.70952691     0.27800
C188        C  0.79886957  0.32102760  0.71099195     0.27800
C189        C  0.70691353  0.28857140  0.79110708     0.36400
C190        C  0.71977634  0.27629943  0.74367448     0.36400
C191        C  0.79590218  0.37789372  0.79186441     0.36400
C192        C  0.81086786  0.36396055  0.74570743     0.36400
C193        C  0.73615006  0.32666010  0.86358389    -0.21100
C194        C  0.75716868  0.34867337  0.86369381    -0.21100
C195        C  0.78263701  0.28155713  0.68510603    -0.21100
C196        C  0.80500812  0.30211588  0.68606782    -0.21100
C197        C  0.68390146  0.27174937  0.77895415    -0.22200
C198        C  0.69221262  0.26368999  0.74900453    -0.22200
C199        C  0.81354769  0.40051951  0.78028131    -0.22200
C200        C  0.82341960  0.39146759  0.75120210    -0.22200
C201        C  0.70778794  0.30087605  0.82169834    -0.17500
C202        C  0.78286452  0.37723314  0.82208091    -0.17500
C203        C  0.81610826  0.34621681  0.71890633    -0.17500
C204        C  0.73680152  0.27248420  0.71604611    -0.17500
H205        H  0.72520521  0.31764366  0.88416125     0.15400
H206        H  0.76570940  0.35989909  0.88432913     0.15400
H207        H  0.78075783  0.26390581  0.66799857     0.15400
H208        H  0.82335832  0.30324140  0.66969154     0.15400
H209        H  0.66327956  0.26584596  0.79034451     0.13700
H210        H  0.67934342  0.25023336  0.73293984     0.13700
H211        H  0.81913002  0.42118603  0.79169864     0.13700
H212        H  0.83803529  0.40381560  0.73585840     0.13700
H213        H  0.74605702  0.33856978  0.78929692     0.26900
H214        H  0.76132020  0.32451813  0.74150687     0.26900
N215        N  0.76374453  0.88041146  0.26783841    -0.35800
N216        N  0.71537312  0.89558086  0.22668998    -0.56400
N217        N  0.73379828  0.84764343  0.18441010    -0.35800
N218        N  0.78102675  0.83140426  0.22727976    -0.56400
C219        C  0.74700141  0.89811956  0.28646469     0.27800
C220        C  0.78088227  0.86381547  0.28717796     0.27800
C221        C  0.70698277  0.85473669  0.17200055     0.27800
C222        C  0.74205307  0.82115811  0.17206633     0.27800
C223        C  0.71437987  0.91956754  0.24574179     0.36400
C224        C  0.69781565  0.90163741  0.20171983     0.36400
C225        C  0.80425343  0.83122039  0.24737866     0.36400
C226        C  0.78861533  0.81389784  0.20277657     0.36400
C227        C  0.75311678  0.89227388  0.31788758    -0.21100
C228        C  0.77448369  0.87058346  0.31834000    -0.21100
C229        C  0.69853121  0.83288121  0.15086406    -0.21100
C230        C  0.72057705  0.81184814  0.15083946    -0.21100
C231        C  0.69623603  0.94110731  0.23268921    -0.22200
C232        C  0.68536445  0.92955518  0.20502024    -0.22200
C233        C  0.82689861  0.81367624  0.23552204    -0.22200
C234        C  0.81681920  0.80236029  0.20742168    -0.22200
C235        C  0.72801164  0.92090253  0.27570841    -0.17500
C236        C  0.80392037  0.84469153  0.27736833    -0.17500
C237        C  0.76912608  0.80598399  0.17812979    -0.17500
C238        C  0.69079223  0.88121989  0.17765354    -0.17500
H239        H  0.74337455  0.90275141  0.33837271     0.15400
H240        H  0.78447862  0.86112855  0.33925865     0.15400
H241        H  0.67884554  0.83233007  0.13627928     0.15400
H242        H  0.72085408  0.79227593  0.13618284     0.15400
H243        H  0.69093845  0.96268228  0.24217874     0.13700
H244        H  0.66992589  0.94044732  0.18927583     0.13700
H245        H  0.84816448  0.80892015  0.24624834     0.13700
H246        H  0.82879141  0.78709298  0.19244237     0.13700
H247        H  0.76630518  0.88243697  0.24355321     0.26900
H248        H  0.74687222  0.86141224  0.19815149     0.26900
N249        N  0.74315362  0.83940641  0.67661026    -0.35800
N250        N  0.75388728  0.78998253  0.71886778    -0.56400
N251        N  0.70693193  0.81163161  0.75967612    -0.35800
N252        N  0.69732505  0.86206486  0.71871006    -0.56400
C253        C  0.76894098  0.82890459  0.66450931     0.27800
C254        C  0.73826903  0.86639166  0.66366552     0.27800
C255        C  0.72041423  0.79154072  0.77854579     0.27800
C256        C  0.69132985  0.83001388  0.77868380     0.27800
C257        C  0.77275248  0.78209769  0.69562454     0.36400
C258        C  0.75268206  0.76690587  0.73901378     0.36400
C259        C  0.69300367  0.88059164  0.69415829     0.36400
C260        C  0.67446624  0.86644737  0.73879129     0.36400
C261        C  0.77998670  0.84912009  0.64287101    -0.21100
C262        C  0.76071226  0.87260983  0.64230507    -0.21100
C263        C  0.71343463  0.79730679  0.80978567    -0.21100
C264        C  0.69521556  0.82164448  0.80988245    -0.21100
C265        C  0.78376027  0.75388653  0.70114553    -0.22200
C266        C  0.77077621  0.74412248  0.72848775    -0.22200
C267        C  0.66732091  0.89699349  0.69877638    -0.22200
C268        C  0.65540017  0.88778041  0.72689589    -0.22200
C269        C  0.78214900  0.80104122  0.67116210    -0.17500
C270        C  0.71355338  0.88509491  0.66950256    -0.17500
C271        C  0.67194250  0.85279742  0.76859326    -0.17500
C272        C  0.73809800  0.76753155  0.76839294    -0.17500
H273        H  0.79963258  0.84714399  0.62839375     0.15400
H274        H  0.76290986  0.89183823  0.62731561     0.15400
H275        H  0.72081532  0.78530565  0.83044419     0.15400
H276        H  0.68576146  0.83193150  0.83062569     0.15400
H277        H  0.79993244  0.74180574  0.68735614     0.13700
H278        H  0.77501611  0.72309074  0.73985816     0.13700
H279        H  0.65828994  0.91415706  0.68378142     0.13700
H280        H  0.63530784  0.89627326  0.73751862     0.13700
H281        H  0.72837860  0.82779501  0.69065900     0.26900
H282        H  0.70554384  0.81059827  0.73521374     0.26900
N283        N  0.24473228  0.85597662  0.18423270    -0.35800
N284        N  0.26267548  0.90056351  0.22996178    -0.56400
N285        N  0.21371923  0.88243146  0.26988273    -0.35800
N286        N  0.19748529  0.83625634  0.22584081    -0.56400
C287        C  0.27083356  0.86474779  0.17154453     0.27800
C288        C  0.23673557  0.83055946  0.16963206     0.27800
C289        C  0.22975921  0.89927981  0.28994548     0.27800
C290        C  0.19554840  0.86552455  0.28770788     0.27800
C291        C  0.28016382  0.90878969  0.20565460     0.36400
C292        C  0.26362737  0.92276701  0.25126219     0.36400
C293        C  0.19090736  0.81947138  0.20050896     0.36400
C294        C  0.17437761  0.83370229  0.24586361     0.36400
C295        C  0.27900377  0.84511684  0.14790924    -0.21100
C296        C  0.25758385  0.82367781  0.14668751    -0.21100
C297        C  0.22183416  0.89277255  0.32079887    -0.21100
C298        C  0.20016071  0.87157574  0.31936228    -0.21100
C299        C  0.29256521  0.93626733  0.21164929    -0.22200
C300        C  0.28181860  0.94528546  0.24044057    -0.22200
C301        C  0.16360141  0.80588146  0.20468507    -0.22200
C302        C  0.15296207  0.81520674  0.23330219    -0.22200
C303        C  0.28666372  0.89084498  0.17929237    -0.17500
C304        C  0.21050151  0.81407981  0.17524783    -0.17500
C305        C  0.17351752  0.84619564  0.27621522    -0.17500
C306        C  0.24988303  0.92178120  0.28115743    -0.17500
H307        H  0.29809791  0.84624439  0.13252650     0.15400
H308        H  0.25728423  0.80545842  0.13015858     0.15400
H309        H  0.23060985  0.90240815  0.34221167     0.15400
H310        H  0.18897455  0.86177645  0.33937280     0.15400
H311        H  0.30783158  0.94848448  0.19690330     0.13700
H312        H  0.28710415  0.96587870  0.25216253     0.13700
H313        H  0.15257841  0.79049009  0.18910197     0.13700
H314        H  0.13220170  0.80852052  0.24391858     0.13700
H315        H  0.23179626  0.86810608  0.19980165     0.26900
H316        H  0.21243669  0.88514127  0.24555158     0.26900
N317        N  0.26832775  0.79357602  0.76697380    -0.35800
N318        N  0.22020750  0.77550403  0.72599315    -0.56400
N319        N  0.23134652  0.82823366  0.68807957    -0.35800
N320        N  0.27980360  0.84596217  0.72827965    -0.56400
C321        C  0.25517204  0.77283113  0.78538005     0.27800
C322        C  0.28763772  0.80851154  0.78554253     0.27800
C323        C  0.21248439  0.81330182  0.66899947     0.27800
C324        C  0.24260215  0.85085742  0.67084197     0.27800
C325        C  0.21672100  0.75421918  0.74796600     0.36400
C326        C  0.19840336  0.77156929  0.70463555     0.36400
C327        C  0.30193004  0.84970730  0.74929555     0.36400
C328        C  0.28143958  0.86885140  0.70788440     0.36400
C329        C  0.26621055  0.77482749  0.81584854    -0.21100
C330        C  0.28666605  0.79719011  0.81593060    -0.21100
C331        C  0.21199185  0.82648547  0.63945560    -0.21100
C332        C  0.23080799  0.85017112  0.64066902    -0.21100
C333        C  0.19287296  0.73628855  0.74020420    -0.22200
C334        C  0.18095641  0.74760488  0.71303565    -0.22200
C335        C  0.31802518  0.87492510  0.74195282    -0.22200
C336        C  0.30464539  0.88738967  0.71610431    -0.22200
C337        C  0.23351819  0.75190346  0.77590447    -0.17500
C338        C  0.30656655  0.83189338  0.77617946    -0.17500
C339        C  0.26310199  0.87245050  0.68118515    -0.17500
C340        C  0.19416782  0.78916543  0.67758617    -0.17500
H341        H  0.25985765  0.76181999  0.83617528     0.15400
H342        H  0.29905558  0.80462299  0.83630956     0.15400
H343        H  0.19930660  0.81974894  0.61901112     0.15400
H344        H  0.23556822  0.86500056  0.62128637     0.15400
H345        H  0.18429907  0.71751377  0.75310154     0.13700
H346        H  0.16156912  0.73912234  0.70106122     0.13700
H347        H  0.33703440  0.88388066  0.75424354     0.13700
H348        H  0.31165154  0.90750450  0.70449370     0.13700
H349        H  0.26655595  0.79557243  0.74263782     0.26900
H350        H  0.23369652  0.82522941  0.71221586     0.26900
N351        N  0.26689297  0.33801678  0.81672123    -0.35800
N352        N  0.21860836  0.35514742  0.77654098    -0.56400
N353        N  0.23397327  0.30613094  0.73493771    -0.35800
N354        N  0.28095821  0.28759426  0.77683206    -0.56400
C355        C  0.25228873  0.35732014  0.83551429     0.27800
C356        C  0.28502074  0.32194718  0.83543400     0.27800
C357        C  0.20762478  0.31469330  0.72267800     0.27800
C358        C  0.24033588  0.27904857  0.72303886     0.27800
C359        C  0.21937821  0.37930380  0.79525019     0.36400
C360        C  0.20221609  0.36258378  0.75115161     0.36400
C361        C  0.30542854  0.28795960  0.79511670     0.36400
C362        C  0.28764573  0.27075462  0.75155529     0.36400
C363        C  0.26090486  0.35319894  0.86658667    -0.21100
C364        C  0.28157897  0.33079414  0.86654980    -0.21100
C365        C  0.19717065  0.29284741  0.70256833    -0.21100
C366        C  0.21778719  0.27037498  0.70280172    -0.21100
C367        C  0.20315448  0.40215217  0.78188770    -0.22200
C368        C  0.19206107  0.39146056  0.75398159    -0.22200
C369        C  0.32776629  0.27112979  0.78154835    -0.22200
C370        C  0.31635054  0.25993535  0.75399795    -0.22200
C371        C  0.23353155  0.38024239  0.82483202    -0.17500
C372        C  0.30703213  0.30216378  0.82457132    -0.17500
C373        C  0.26730459  0.26354589  0.72759444    -0.17500
C374        C  0.19435010  0.34281377  0.72687813    -0.17500
H375        H  0.25352852  0.36549959  0.88703944     0.15400
H376        H  0.29336904  0.32250918  0.88697604     0.15400
H377        H  0.17722622  0.29332893  0.68837816     0.15400
H378        H  0.21664884  0.25041689  0.68878293     0.15400
H379        H  0.19949685  0.42411900  0.79128106     0.13700
H380        H  0.17797067  0.40352686  0.73778501     0.13700
H381        H  0.34988397  0.26718577  0.79056301     0.13700
H382        H  0.32787969  0.24554828  0.73768353     0.13700
H383        H  0.26792161  0.33885331  0.79224886     0.26900
H384        H  0.24850630  0.31965366  0.74725599     0.26900
C385        C  0.11532855  0.39010820  0.62286171     0.16700
C386        C  0.14352375  0.39099368  0.63684622    -0.32300
C387        C  0.14792442  0.37404890  0.66419316     0.21100
C388        C  0.12507432  0.35773108  0.67753552     0.03300
C389        C  0.09700497  0.35692651  0.66363738    -0.22000
C390        C  0.09287262  0.37302782  0.63583897     0.12500
S391        S  0.10577481  0.40725518  0.58836775    -0.05700
C392        C  0.07170705  0.39028653  0.59121653    -0.09200
C393        C  0.06789922  0.37287944  0.61763960    -0.25800
S394        S  0.13470567  0.33826212  0.71036365    -0.03000
C395        C  0.17009426  0.35149675  0.70553733    -0.16400
C396        C  0.17402998  0.37047421  0.68026076    -0.14400
H397        H  0.16142595  0.40358012  0.62638900     0.21000
H398        H  0.07938364  0.34357852  0.67354211     0.17000
H399        H  0.04817035  0.36007680  0.62272261     0.19500
H400        H  0.19490603  0.38068447  0.67387617     0.12900
C401        C  0.11660657  0.37797543  0.41780469     0.16700
C402        C  0.13581329  0.36521240  0.39588878    -0.32300
C403        C  0.15786132  0.38316275  0.38300824     0.21100
C404        C  0.16092099  0.41265774  0.39145892     0.03300
C405        C  0.14149622  0.42556958  0.41347971    -0.22000
C406        C  0.11917939  0.40749390  0.42638570     0.12500
S407        S  0.08885004  0.35931736  0.43610611    -0.05700
C408        C  0.08003717  0.39155834  0.45553795    -0.09200
C409        C  0.09798571  0.41554706  0.44811616    -0.25800
S410        S  0.18984221  0.43023137  0.37311720    -0.03000
C411        C  0.19743260  0.39734541  0.35413817    -0.16400
C412        C  0.17865144  0.37432355  0.36168362    -0.14400
H413        H  0.13373490  0.34216182  0.38924298     0.21000
H414        H  0.14372014  0.44855355  0.42028826     0.17000
H415        H  0.09585941  0.43743139  0.45827529     0.19500
H416        H  0.18043454  0.35211622  0.35222880     0.12900
C417        C  0.92394898  0.37714017  0.39967686     0.16700
C418        C  0.90859089  0.36504053  0.37414634    -0.32300
C419        C  0.88752622  0.38289371  0.35912132     0.21100
C420        C  0.88209243  0.41174267  0.36870708     0.03300
C421        C  0.89816542  0.42421463  0.39377256    -0.22000
C422        C  0.91907504  0.40613094  0.40913886     0.12500
S423        S  0.94860388  0.35804393  0.42234399    -0.05700
C424        C  0.95281499  0.38945367  0.44481043    -0.09200
C425        C  0.93589755  0.41346535  0.43497794    -0.25800
S426        S  0.85320833  0.42843841  0.34936174    -0.03000
C427        C  0.84858928  0.39606279  0.32839645    -0.16400
C428        C  0.86871408  0.37398117  0.33578043    -0.14400
H429        H  0.91213104  0.34229016  0.36701991     0.21000
H430        H  0.89380585  0.44658941  0.40167825     0.17000
H431        H  0.93552408  0.43487470  0.44644729     0.19500
H432        H  0.86834047  0.35189321  0.32585673     0.12900
C433        C  0.90095627  0.38836258  0.61712966     0.16700
C434        C  0.87405643  0.39340691  0.63292378    -0.32300
C435        C  0.86703800  0.37478398  0.65835336     0.21100
C436        C  0.88616304  0.35242430  0.66794142     0.03300
C437        C  0.91281717  0.34713305  0.65191992    -0.22000
C438        C  0.91956555  0.36541280  0.62620290     0.12500
S439        S  0.91375028  0.40852550  0.58577780    -0.05700
C440        C  0.94404152  0.38527411  0.58449980    -0.09200
C441        C  0.94409183  0.36330071  0.60730562    -0.25800
S442        S  0.87366753  0.33211656  0.69912743    -0.03000
C443        C  0.84189467  0.35334352  0.69863012    -0.16400
C444        C  0.84146309  0.37536655  0.67589870    -0.14400
H445        H  0.85914887  0.41091153  0.62556248     0.21000
H446        H  0.92751984  0.32934255  0.65899270     0.17000
H447        H  0.96134419  0.34676902  0.61002882     0.19500
H448        H  0.82308020  0.39037382  0.67192617     0.12900
C449        C  0.69208405  0.19712343  0.60738735     0.16700
C450        C  0.68837536  0.22356158  0.62441180    -0.32300
C451        C  0.70578892  0.22751106  0.65162192     0.21100
C452        C  0.72526224  0.20571803  0.66190432     0.03300
C453        C  0.72878971  0.17936563  0.64507796    -0.22000
C454        C  0.71218748  0.17585547  0.61745594     0.12500
S455        S  0.67518284  0.18883306  0.57225207    -0.05700
C456        C  0.69632559  0.15703823  0.57087313    -0.09200
C457        C  0.71476506  0.15297134  0.59660482    -0.25800
S458        S  0.74531010  0.21482902  0.69454505    -0.03000
C459        C  0.72799773  0.24873264  0.69395575    -0.16400
C460        C  0.70728271  0.25244744  0.67007156    -0.14400
H461        H  0.67342264  0.24069741  0.61621030     0.21000
H462        H  0.74465404  0.16275630  0.65256536     0.17000
H463        H  0.73013169  0.13467792  0.59930979     0.19500
H464        H  0.69478265  0.27256615  0.66594260     0.12900
C465        C  0.70698936  0.21451710  0.39913485     0.16700
C466        C  0.69930248  0.23840808  0.37962459    -0.32300
C467        C  0.72216891  0.25194200  0.36241606     0.21100
C468        C  0.75123258  0.24190526  0.36429163     0.03300
C469        C  0.75888958  0.21825329  0.38389329    -0.22000
C470        C  0.73619588  0.20500338  0.40132850     0.12500
S471        S  0.68272420  0.19466991  0.42170284    -0.05700
C472        C  0.71245032  0.17375013  0.43441021    -0.09200
C473        C  0.73949164  0.18183536  0.42169299    -0.25800
S474        S  0.77582582  0.26093152  0.34161046    -0.03000
C475        C  0.74681772  0.28308875  0.32975145    -0.16400
C476        C  0.71949686  0.27578473  0.34264133    -0.14400
H477        H  0.67658866  0.24612373  0.37798334     0.21000
H478        H  0.78160969  0.21056082  0.38556882     0.17000
H479        H  0.76042810  0.17098704  0.42667585     0.19500
H480        H  0.69896410  0.28748868  0.33798743     0.12900
C481        C  0.70309401  0.98148245  0.33444920     0.16700
C482        C  0.68761418  0.99990599  0.35542720    -0.32300
C483        C  0.70432407  0.01689341  0.37671079     0.21100
C484        C  0.73508077  0.01577121  0.37689914     0.03300
C485        C  0.75055487  0.99783042  0.35553801    -0.22000
C486        C  0.73384056  0.98073918  0.33443750     0.12500
S487        S  0.68699841  0.95729060  0.30856940    -0.05700
C488        C  0.72213189  0.94624214  0.29736456    -0.09200
C489        C  0.74484088  0.96089091  0.31303233    -0.25800
S490        S  0.75126459  0.03683535  0.40549085    -0.03000
C491        C  0.71622597  0.04736517  0.41743149    -0.16400
C492        C  0.69335992  0.03517270  0.39981975    -0.14400
H493        H  0.66359444  0.00040597  0.35570046     0.21000
H494        H  0.77456367  0.99670584  0.35584675     0.17000
H495        H  0.76824541  0.95636666  0.30970830     0.24300
H496        H  0.66998103  0.03902258  0.40407199     0.12900
C497        C  0.68628946  0.98561849  0.57877377     0.16700
C498        C  0.67752596  0.95773967  0.58996348    -0.32300
C499        C  0.69429055  0.94514909  0.61446899     0.21100
C500        C  0.71812847  0.96004942  0.62775217     0.03300
C501        C  0.72695148  0.98770195  0.61646197    -0.22000
C502        C  0.71078086  0.99985704  0.59147960     0.12500
S503        S  0.66969859  0.00444660  0.54854441    -0.05700
C504        C  0.69681827  0.03101975  0.55248236    -0.09200
C505        C  0.71704668  0.02576662  0.57635201    -0.25800
S506        S  0.73557009  0.94153092  0.65737454    -0.03000
C507        C  0.71123815  0.91284463  0.65116447    -0.16400
C508        C  0.69029508  0.91777135  0.62777832    -0.14400
H509        H  0.65884653  0.94618296  0.57968123     0.21000
H510        H  0.74596465  0.99902228  0.62635650     0.17000
H511        H  0.73555601  0.04004879  0.58211865     0.19500
H512        H  0.67337517  0.90208955  0.62080228     0.12900
C513        C  0.08778204  0.79630096  0.37260599     0.16700
C514        C  0.10965756  0.78953890  0.35014306    -0.32300
C515        C  0.12049268  0.81292203  0.33159157     0.21100
C516        C  0.10957189  0.84149831  0.33488015     0.03300
C517        C  0.08779616  0.84815498  0.35712193    -0.22000
C518        C  0.07749041  0.82505917  0.37601185     0.12500
S519        S  0.07199151  0.77162570  0.39820847    -0.05700
C520        C  0.05191143  0.80068432  0.41379164    -0.09200
C521        C  0.05714871  0.82771564  0.39959100    -0.25800
S522        S  0.12599153  0.86715183  0.31140344    -0.03000
C523        C  0.14842684  0.83936091  0.29734889    -0.16400
C524        C  0.14295871  0.81152450  0.30983943    -0.14400
H525        H  0.11823543  0.76725861  0.34767252     0.21000
H526        H  0.07968773  0.87056434  0.36006774     0.17000
H527        H  0.04648925  0.84833442  0.40610126     0.19500
H528        H  0.15548995  0.79175346  0.30419435     0.12900
C529        C  0.08673117  0.80282609  0.59464449     0.16700
C530        C  0.10414967  0.81461513  0.61869367    -0.32300
C531        C  0.12695537  0.79694232  0.63057081     0.21100
C532        C  0.13246648  0.76871577  0.61910019     0.03300
C533        C  0.11448621  0.75656640  0.59540509    -0.22000
C534        C  0.09149343  0.77434706  0.58345241     0.12500
S535        S  0.05928700  0.82177185  0.57606120    -0.05700
C536        C  0.05374838  0.79098162  0.55298958    -0.09200
C537        C  0.07222379  0.76722354  0.55960924    -0.25800
S538        S  0.16312973  0.75212516  0.63507881    -0.03000
C539        C  0.16797292  0.78357644  0.65751411    -0.16400
C540        C  0.14690489  0.80534629  0.65286362    -0.14400
H541        H  0.10053857  0.83691396  0.62727044     0.21000
H542        H  0.11867342  0.73461290  0.58617223     0.17000
H543        H  0.07209098  0.74631936  0.54713037     0.19500
H544        H  0.14708232  0.82680414  0.66426516     0.12900
C545        C  0.89768691  0.79902308  0.59935621     0.16700
C546        C  0.88243119  0.80947591  0.62581364    -0.32300
C547        C  0.85445282  0.79744031  0.63200030     0.21100
C548        C  0.84217773  0.77577535  0.61285814     0.03300
C549        C  0.85791775  0.76457650  0.58692836    -0.22000
C550        C  0.88590269  0.77679414  0.58058115     0.12500
S551        S  0.93025428  0.81333415  0.58600214    -0.05700
C552        C  0.92821499  0.78897551  0.55492361    -0.09200
C553        C  0.90373059  0.77048669  0.55522209    -0.25800
S554        S  0.80652047  0.76656730  0.62240243    -0.03000
C555        C  0.80838872  0.79216676  0.65240758    -0.16400
C556        C  0.83537598  0.80650399  0.65510458    -0.14400
H557        H  0.89144116  0.82711288  0.64019936     0.21000
H558        H  0.84828100  0.74797005  0.57164875     0.17000
H559        H  0.89848322  0.75453211  0.53700994     0.19500
H560        H  0.84004763  0.82393906  0.67190800     0.12900
C561        C  0.89181319  0.79595931  0.37301991     0.16700
C562        C  0.87107469  0.78905194  0.34943996    -0.32300
C563        C  0.85804951  0.81273571  0.33296523     0.21100
C564        C  0.86574419  0.84184898  0.33932541     0.03300
C565        C  0.88634477  0.84869522  0.36277018    -0.22000
C566        C  0.89890696  0.82517370  0.37951422     0.12500
S567        S  0.91003900  0.77080115  0.39625467    -0.05700
C568        C  0.92686823  0.80018320  0.41501609    -0.09200
C569        C  0.91879723  0.82771286  0.40354751    -0.25800
S570        S  0.84735517  0.86755084  0.31746464    -0.03000
C571        C  0.82839296  0.83891387  0.29989276    -0.16400
C572        C  0.83646923  0.81089668  0.31025304    -0.14400
H573        H  0.86507992  0.76633272  0.34445364     0.21000
H574        H  0.89203369  0.87144230  0.36805807     0.17000
H575        H  0.92722336  0.84862432  0.41222867     0.19500
H576        H  0.82648509  0.79045690  0.30222808     0.12900
C577        C  0.27035475  0.20721721  0.41770610     0.16700
C578        C  0.25844452  0.22909111  0.39810016    -0.32300
C579        C  0.27825082  0.24844372  0.38331856     0.21100
C580        C  0.30867092  0.24637544  0.38781638     0.03300
C581        C  0.32065807  0.22432778  0.40740728    -0.22000
C582        C  0.30076004  0.20476315  0.42210684     0.12500
S583        S  0.24984630  0.18156012  0.43751015    -0.05700
C584        C  0.28254983  0.16686333  0.45155524    -0.09200
C585        C  0.30791557  0.18151874  0.44151990    -0.25800
S586        S  0.32871100  0.27246745  0.36772021    -0.03000
C587        C  0.29559534  0.28598332  0.35321749    -0.16400
C588        C  0.27068395  0.27102483  0.36350753    -0.14400
H589        H  0.23472358  0.23092136  0.39445701     0.21000
H590        H  0.34438376  0.22243964  0.41095361     0.17000
H591        H  0.33036084  0.17536871  0.44791497     0.19500
H592        H  0.24814650  0.27654690  0.35680637     0.12900
C593        C  0.27522805  0.19394485  0.67681145     0.16700
C594        C  0.27056553  0.16699524  0.66138348    -0.32300
C595        C  0.28502526  0.16258209  0.63255670     0.21100
C596        C  0.30436593  0.18344797  0.62021703     0.03300
C597        C  0.30929271  0.21031882  0.63584107    -0.22000
C598        C  0.29382522  0.21526229  0.66404426     0.12500
S599        S  0.25735828  0.20462033  0.71037504    -0.05700
C600        C  0.27430060  0.23849888  0.70651170    -0.09200
C601        C  0.29337753  0.24098899  0.68108632    -0.25800
S602        S  0.31835932  0.17452942  0.58400990    -0.03000
C603        C  0.29689513  0.14311155  0.58510093    -0.16400
C604        C  0.28055602  0.13942824  0.61239495    -0.14400
H605        H  0.25523388  0.15076570  0.67069004     0.21000
H606        H  0.32346228  0.22716256  0.62573080     0.17000
H607        H  0.30541845  0.26088050  0.67490411     0.19500
H608        H  0.26521937  0.12142002  0.61659770     0.12900
C609        C  0.29377567  0.97244158  0.59075036     0.16700
C610        C  0.30406971  0.94698033  0.60633461    -0.32300
C611        C  0.28435358  0.93253748  0.62683620     0.21100
C612        C  0.25574117  0.94302065  0.63154133     0.03300
C613        C  0.24530010  0.96798581  0.61548276    -0.22000
C614        C  0.26493723  0.98238293  0.59507534     0.12500
S615        S  0.31442938  0.99412110  0.56605620    -0.05700
C616        C  0.28373347  0.01657352  0.56141496    -0.09200
C617        C  0.25896423  0.00743054  0.57808683    -0.25800
S618        S  0.23530338  0.92302100  0.65768069    -0.03000
C619        C  0.26539434  0.89987463  0.66211828    -0.16400
C620        C  0.28998187  0.90749195  0.64419876    -0.14400
H621        H  0.32650613  0.93899224  0.60291341     0.21000
H622        H  0.22289434  0.97603402  0.61900105     0.17000
H623        H  0.23781327  0.01885272  0.57826969     0.19500
H624        H  0.31055786  0.89509448  0.64355924     0.12900
C625        C  0.27813039  0.97322227  0.34675309     0.16700
C626        C  0.29454549  0.98844682  0.36965237    -0.32300
C627        C  0.27887214  0.00676445  0.39055307     0.21100
C628        C  0.24821071  0.00925965  0.38917261     0.03300
C629        C  0.23183378  0.99392937  0.36647104    -0.22000
C630        C  0.24754228  0.97626027  0.34512881     0.12500
S631        S  0.29275732  0.94976936  0.31922375    -0.05700
C632        C  0.25727326  0.94443295  0.30517670    -0.09200
C633        C  0.23551871  0.96009672  0.32115334    -0.25800
S634        S  0.23321532  0.03244327  0.41651863    -0.03000
C635        C  0.26865252  0.03927057  0.42976852    -0.16400
C636        C  0.29078976  0.02404741  0.41385715    -0.14400
H637        H  0.31845222  0.98631052  0.37095132     0.21000
H638        H  0.20790675  0.99594157  0.36527419     0.17000
H639        H  0.21198815  0.95883713  0.31609232     0.19500
H640        H  0.31425935  0.02544090  0.41914835     0.12900
C641        C  0.81349259  0.50758084  0.10389055     0.16700
C642        C  0.82123862  0.48305523  0.12234326    -0.32300
C643        C  0.80360407  0.47698396  0.14878306     0.21100
C644        C  0.77985558  0.49497861  0.15705439     0.03300
C645        C  0.77217402  0.51948363  0.13868996    -0.22000
C646        C  0.78922757  0.52499716  0.11178008     0.12500
S647        S  0.83078314  0.51773691  0.06968970    -0.05700
C648        C  0.80425261  0.54488220  0.06559396    -0.09200
C649        C  0.78377498  0.54633843  0.08982253    -0.25800
S650        S  0.76042554  0.48328678  0.18916035    -0.03000
C651        C  0.78404144  0.45338248  0.19085807    -0.16400
C652        C  0.80608133  0.45294466  0.16817381    -0.14400
H653        H  0.83958428  0.46880831  0.11583475     0.21000
H654        H  0.75312227  0.53306660  0.14451487     0.17000
H655        H  0.76545812  0.56186745  0.09093952     0.19500
H656        H  0.82219080  0.43533729  0.16531919     0.12900
C657        C  0.80908916  0.71210445  0.08423130     0.16700
C658        C  0.81507419  0.74003853  0.09733203    -0.32300
C659        C  0.79715959  0.74953856  0.12254790     0.21100
C660        C  0.77512543  0.73152547  0.13487861     0.03300
C661        C  0.76933581  0.70366025  0.12198875    -0.22000
C662        C  0.78637761  0.69470978  0.09613096     0.12500
S663        S  0.82644411  0.69724979  0.05193996    -0.05700
C664        C  0.80185324  0.66814105  0.05394014    -0.09200
C665        C  0.78210611  0.66958651  0.07883967    -0.25800
S666        S  0.75517548  0.74701910  0.16473626    -0.03000
C667        C  0.77576048  0.77873629  0.15983708    -0.16400
C668        C  0.79764158  0.77682439  0.13687388    -0.14400
H669        H  0.83215925  0.75415114  0.08758225     0.21000
H670        H  0.75152543  0.68999343  0.13098314     0.17000
H671        H  0.76498023  0.65338510  0.08356877     0.19500
H672        H  0.81244520  0.79469288  0.13048476     0.12900
C673        C  0.78743296  0.68905242  0.87125206     0.16700
C674        C  0.79370610  0.70959381  0.84751657    -0.32300
C675        C  0.77026866  0.71840567  0.82794330     0.21100
C676        C  0.74191698  0.70690633  0.83136441     0.03300
C677        C  0.73565580  0.68626911  0.85503573    -0.22000
C678        C  0.75897788  0.67795703  0.87504482     0.12500
S679        S  0.81265090  0.67613107  0.89798032    -0.05700
C680        C  0.78437592  0.65608788  0.91482062    -0.09200
C681        C  0.75705355  0.65915463  0.90016371    -0.25800
S682        S  0.71627938  0.72146145  0.80610394    -0.03000
C683        C  0.74403948  0.74355784  0.79123001    -0.16400
C684        C  0.77161292  0.73945584  0.80488308    -0.14400
H685        H  0.81574363  0.71876728  0.84482946     0.21000
H686        H  0.71345843  0.67760966  0.85819397     0.17000
H687        H  0.73687540  0.64809423  0.90743408     0.19500
H688        H  0.79126071  0.75207691  0.79902656     0.12900
C689        C  0.77198905  0.49129862  0.89555927     0.16700
C690        C  0.75768175  0.46988684  0.87727403    -0.32300
C691        C  0.77450514  0.44559340  0.86724012     0.21100
C692        C  0.80430890  0.44267587  0.87489388     0.03300
C693        C  0.81874394  0.46435356  0.89283099    -0.22000
C694        C  0.80188334  0.48869327  0.90291821     0.12500
S695        S  0.75491979  0.52137168  0.91167596    -0.05700
C696        C  0.78839872  0.53057679  0.92855920    -0.09200
C697        C  0.81156899  0.51150647  0.92149757    -0.25800
S698        S  0.82074750  0.41145541  0.86026965    -0.03000
C699        C  0.78718708  0.40276033  0.84325937    -0.16400
C700        C  0.76453720  0.42264993  0.84920201    -0.14400
H701        H  0.73436388  0.47189174  0.87143644     0.21000
H702        H  0.84199665  0.46222299  0.89888447     0.17000
H703        H  0.83395265  0.51356294  0.93053239     0.19500
H704        H  0.74216580  0.42070841  0.84008563     0.12900
C705        C  0.59756259  0.91264634  0.07975204     0.16700
C706        C  0.62539980  0.91984397  0.09250176    -0.32300
C707        C  0.63450815  0.90461205  0.11974601     0.21100
C708        C  0.61621371  0.88405324  0.13429403     0.03300
C709        C  0.58826031  0.87735414  0.12195773    -0.22000
C710        C  0.57971950  0.89160764  0.09411403     0.12500
S711        S  0.58358978  0.92603205  0.04499614    -0.05700
C712        C  0.55415335  0.90213341  0.04955726    -0.09200
C713        C  0.55485620  0.88550500  0.07689863    -0.25800
S714        S  0.63167141  0.86657644  0.16589152    -0.03000
C715        C  0.66349550  0.88650632  0.15902907    -0.16400
C716        C  0.66181530  0.90619670  0.13400598    -0.14400
H717        H  0.63985788  0.93556021  0.08090667     0.21000
H718        H  0.57435919  0.86065962  0.13275393     0.17000
H719        H  0.53843055  0.86910441  0.08333394     0.19500
H720        H  0.67990295  0.92009557  0.12613131     0.12900
C721        C  0.39742689  0.88506346  0.09993488     0.16700
C722        C  0.38303199  0.87571512  0.12735816    -0.32300
C723        C  0.35627063  0.88957706  0.13520399     0.21100
C724        C  0.34407086  0.91160469  0.11643262     0.03300
C725        C  0.35881055  0.92138684  0.08919281    -0.22000
C726        C  0.38586274  0.90767738  0.08148283     0.12500
S727        S  0.42918561  0.86966362  0.08573732    -0.05700
C728        C  0.42745071  0.89431647  0.05487934    -0.09200
C729        C  0.40331623  0.91340062  0.05561975    -0.25800
S730        S  0.30984624  0.92341791  0.12856401    -0.03000
C731        C  0.31237071  0.89860694  0.15927753    -0.16400
C732        C  0.33843102  0.88239364  0.16008631    -0.14400
H733        H  0.39200096  0.85793710  0.14162116     0.21000
H734        H  0.34931570  0.93843664  0.07433113     0.17000
H735        H  0.39830345  0.92974913  0.03771395     0.19500
H736        H  0.34309953  0.86488768  0.17683063     0.12900
C737        C  0.37180661  0.83721311  0.83335571     0.16700
C738        C  0.39521263  0.83086713  0.85392363    -0.32300
C739        C  0.40166869  0.85178175  0.87724510     0.21100
C740        C  0.38612866  0.87823968  0.87947109     0.03300
C741        C  0.36269599  0.88458278  0.85890954    -0.22000
C742        C  0.35573494  0.86331911  0.83609657     0.12500
S743        S  0.35920831  0.81373384  0.80498874    -0.05700
C744        C  0.33153851  0.83903359  0.79735875    -0.09200
C745        C  0.33248876  0.86448021  0.81545332    -0.25800
S746        S  0.39812833  0.90117669  0.90868013    -0.03000
C747        C  0.42394837  0.87456213  0.91824698    -0.16400
C748        C  0.42317230  0.84935413  0.89979236    -0.14400
H749        H  0.40746157  0.81028527  0.85222229     0.21000
H750        H  0.35014807  0.90495698  0.86092922     0.17000
H751        H  0.31629682  0.88219501  0.81442321     0.19500
H752        H  0.43816708  0.83071588  0.90211528     0.12900
C753        C  0.57683502  0.85659365  0.86912981     0.16700
C754        C  0.59185542  0.83984994  0.84649764    -0.32300
C755        C  0.61172429  0.85462852  0.82674695     0.21100
C756        C  0.61671532  0.88479089  0.82938069     0.03300
C757        C  0.60098836  0.90180264  0.85158783    -0.22000
C758        C  0.58087275  0.88695147  0.87139942     0.12500
S759        S  0.55321623  0.84209899  0.89624118    -0.05700
C760        C  0.54805754  0.87730100  0.91079422    -0.09200
C761        C  0.56396502  0.89913510  0.89514193    -0.25800
S762        S  0.64393129  0.89772612  0.80481056    -0.03000
C763        C  0.64804226  0.86210890  0.79064748    -0.16400
C764        C  0.62916707  0.84168175  0.80434098    -0.14400
H765        H  0.58866769  0.81614706  0.84480878     0.21000
H766        H  0.60474637  0.92537143  0.85380331     0.17000
H767        H  0.56361554  0.92241617  0.90117207     0.19500
H768        H  0.62917041  0.81822760  0.79903438     0.12900
C769        C  0.19035281  0.75206172  0.11730719     0.16700
C770        C  0.17860012  0.73412026  0.09342716    -0.32300
C771        C  0.19326350  0.70738447  0.08697654     0.21100
C772        C  0.21870622  0.69916730  0.10325191     0.03300
C773        C  0.22989915  0.71662530  0.12766818    -0.22000
C774        C  0.21503837  0.74304983  0.13437453     0.12500
S775        S  0.17723349  0.78625940  0.12743946    -0.05700
C776        C  0.20496248  0.78785976  0.15533881    -0.09200
C777        C  0.22313231  0.76322357  0.15664120    -0.25800
S778        S  0.23449340  0.66705090  0.09068898    -0.03000
C779        C  0.20593731  0.66400375  0.06398871    -0.16400
C780        C  0.18551669  0.68692672  0.06459306    -0.14400
H781        H  0.15920163  0.74088879  0.08016947     0.21000
H782        H  0.24961191  0.71011913  0.14056379     0.17000
H783        H  0.24195711  0.76080329  0.17233387     0.19500
H784        H  0.16645476  0.68874836  0.04915396     0.12900
C785        C  0.20415714  0.49912298  0.12220340     0.16700
C786        C  0.19945521  0.47404090  0.14107574    -0.32300
C787        C  0.22011696  0.46822248  0.16511622     0.21100
C788        C  0.24384169  0.48703404  0.17069862     0.03300
C789        C  0.24873206  0.51182367  0.15162853    -0.22000
C790        C  0.22862050  0.51713686  0.12708117     0.12500
S791        S  0.18229696  0.50969174  0.09117002    -0.05700
C792        C  0.20704317  0.53794088  0.08414484    -0.09200
C793        C  0.23056338  0.53922237  0.10512154    -0.25800
S794        S  0.26635197  0.47642414  0.20098603    -0.03000
C795        C  0.24457293  0.44538941  0.20517614    -0.16400
C796        C  0.22049605  0.44411595  0.18481394    -0.14400
H797        H  0.18086877  0.45941634  0.13682146     0.21000
H798        H  0.26772926  0.52604379  0.15538791     0.17000
H799        H  0.24836383  0.55527574  0.10408200     0.19500
H800        H  0.20463707  0.42615219  0.18399889     0.12900
C801        C  0.19361141  0.48002160  0.91115986     0.16700
C802        C  0.18462721  0.45612345  0.89229860    -0.32300
C803        C  0.20675876  0.44074159  0.87562936     0.21100
C804        C  0.23633664  0.44910057  0.87731023     0.03300
C805        C  0.24520052  0.47302176  0.89582402    -0.22000
C806        C  0.22326873  0.48798161  0.91280456     0.12500
S807        S  0.17072746  0.50114337  0.93429343    -0.05700
C808        C  0.20172917  0.52029114  0.94653982    -0.09200
C809        C  0.22800951  0.51096457  0.93292032    -0.25800
S810        S  0.26004995  0.42749987  0.85620457    -0.03000
C811        C  0.22993078  0.40665179  0.84507565    -0.16400
C812        C  0.20291044  0.41625914  0.85697536    -0.14400
H813        H  0.16157161  0.44951050  0.89109375     0.21000
H814        H  0.26832180  0.47936690  0.89740877     0.17000
H815        H  0.24962626  0.52046112  0.93760071     0.19500
H816        H  0.18180366  0.40560955  0.85257849     0.12900
C817        C  0.23118046  0.68745374  0.83435588     0.16700
C818        C  0.23914178  0.66583255  0.85631429    -0.32300
C819        C  0.21850727  0.65889926  0.87976276     0.21100
C820        C  0.19051499  0.67168134  0.88053923     0.03300
C821        C  0.18223411  0.69286687  0.85801539    -0.22000
C822        C  0.20351143  0.70094909  0.83544320     0.12500
S823        S  0.25478887  0.70173984  0.80701225    -0.05700
C824        C  0.22751332  0.72688847  0.79753642    -0.09200
C825        C  0.20126506  0.72371087  0.81424362    -0.25800
S826        S  0.16950639  0.66135078  0.91226456    -0.03000
C827        C  0.19936293  0.64073045  0.92506875    -0.16400
C828        C  0.22365383  0.64113613  0.90515871    -0.14400
H829        H  0.26112338  0.65609797  0.85624427     0.21000
H830        H  0.16083184  0.70374842  0.85911624     0.17000
H831        H  0.18222063  0.73821581  0.81205141     0.19500
H832        H  0.24436751  0.62962604  0.90949030     0.12900
C833        C  0.36855307  0.30652718  0.15935774     0.16700
C834        C  0.37894484  0.29428709  0.13109915    -0.32300
C835        C  0.40916286  0.29761564  0.12418043     0.21100
C836        C  0.42823882  0.31205139  0.14477268     0.03300
C837        C  0.41809963  0.32320156  0.17356929    -0.22000
C838        C  0.38783787  0.32039412  0.18016121     0.12500
S839        S  0.33215318  0.30794876  0.17032103    -0.05700
C840        C  0.34327899  0.32725915  0.20315166    -0.09200
C841        C  0.37343173  0.33208480  0.20560190    -0.25800
S842        S  0.46306114  0.31747600  0.13041970    -0.03000
C843        C  0.45188441  0.29993768  0.09650018    -0.16400
C844        C  0.42287145  0.29005575  0.09648610    -0.14400
H845        H  0.36389363  0.28393091  0.11454551     0.21000
H846        H  0.43284855  0.33491968  0.18939081     0.17000
H847        H  0.38399738  0.34434526  0.22444856     0.19500
H848        H  0.41191995  0.27982027  0.07655016     0.12900
C849        C  0.62051863  0.29911199  0.11532982     0.16700
C850        C  0.64829583  0.29466887  0.12953057    -0.32300
C851        C  0.65656229  0.31430676  0.15364144     0.21100
C852        C  0.63780608  0.33689647  0.16347276     0.03300
C853        C  0.61044473  0.34155654  0.14903600    -0.22000
C854        C  0.60246014  0.32238324  0.12472904     0.12500
S855        S  0.60604220  0.27827605  0.08534745    -0.05700
C856        C  0.57602667  0.30192607  0.08528448    -0.09200
C857        C  0.57714528  0.32423713  0.10743768    -0.25800
S858        S  0.65128246  0.35829085  0.19308365    -0.03000
C859        C  0.68305069  0.33729077  0.19164844    -0.16400
C860        C  0.68290507  0.31456081  0.16972076    -0.14400
H861        H  0.66287555  0.27697462  0.12195398     0.21000
H862        H  0.59609039  0.35958176  0.15623102     0.17000
H863        H  0.56034177  0.34117616  0.11050212     0.19500
H864        H  0.70122333  0.29953596  0.16550113     0.12900
C865        C  0.60564901  0.31796287  0.91213989     0.16700
C866        C  0.62559754  0.33094851  0.89114835    -0.32300
C867        C  0.64507029  0.31218958  0.87504410     0.21100
C868        C  0.64489761  0.28178220  0.87951364     0.03300
C869        C  0.62476105  0.26871631  0.90049552    -0.22000
C870        C  0.60518428  0.28755449  0.91666141     0.12500
S871        S  0.58087324  0.33719878  0.93443982    -0.05700
C872        C  0.56965255  0.30395937  0.95015205    -0.09200
C873        C  0.58437753  0.27933089  0.93846946    -0.25800
S874        S  0.67119081  0.26317672  0.85815475    -0.03000
C875        C  0.68219471  0.29685106  0.84310617    -0.16400
C876        C  0.66628070  0.32089464  0.85416570    -0.14400
H877        H  0.62611118  0.35469794  0.88772315     0.21000
H878        H  0.62454452  0.24501667  0.90427647     0.17000
H879        H  0.58047692  0.25675929  0.94596926     0.19500
H880        H  0.67047137  0.34367631  0.84758716     0.12900
C881        C  0.40929959  0.31747785  0.91429664     0.16700
C882        C  0.39070053  0.33064056  0.89205219    -0.32300
C883        C  0.37133925  0.31218950  0.87557008     0.21100
C884        C  0.37062458  0.28185194  0.88056682     0.03300
C885        C  0.38984904  0.26852205  0.90235113    -0.22000
C886        C  0.40902827  0.28711813  0.91924604     0.12500
S887        S  0.43291227  0.33654940  0.93794592    -0.05700
C888        C  0.44273073  0.30332179  0.95479973    -0.09200
C889        C  0.42846340  0.27877003  0.94244909    -0.25800
S890        S  0.34364787  0.26384341  0.85979267    -0.03000
C891        C  0.33342500  0.29770110  0.84455815    -0.16400
C892        C  0.35032238  0.32132462  0.85468522    -0.14400
H893        H  0.39069175  0.35437097  0.88841793     0.21000
H894        H  0.38925476  0.24490366  0.90662836     0.17000
H895        H  0.43190837  0.25619043  0.95021015     0.19500
H896        H  0.34653061  0.34417280  0.84802790     0.12900
loop_ 
_geom_bond_atom_site_label_1 
_geom_bond_atom_site_label_2 
_geom_bond_distance 
_geom_bond_site_symmetry_2 
_ccdc_geom_bond_type 
O1           Cu9   2.016       .  S
O1           C11   1.278       .  A
O2           Cu9   2.013   1_556  S
O2           C12   1.278       .  A
O3           Cu9   2.006   1_556  S
O3           C13   1.278       .  A
O4           Cu9   2.017       .  S
O4           C14   1.278       .  A
O5          Cu10   1.991       .  S
O5           C14   1.275       .  A
O6          Cu10   1.994   1_556  S
O6           C13   1.276       .  A
O7          Cu10   1.985   1_556  S
O7           C12   1.275       .  A
O8          Cu10   1.976       .  S
O8           C11   1.275       .  A
Cu9         Cu10   2.378       .  S
C11         C856   1.459       .  S
C12         C888   1.464       .  S
C13         C872   1.465       .  S
C14         C843   1.458       .  S
O15         Cu23   1.984   1_556  S
O15          C25   1.276       .  A
O16         Cu23   1.986       .  S
O16          C26   1.274       .  A
O17         Cu23   1.994       .  S
O17          C27   1.276       .  A
O18         Cu23   1.993   1_556  S
O18          C28   1.277       .  A
O19         Cu24   2.013   1_556  S
O19          C28   1.277       .  A
O20         Cu24   2.024       .  S
O20          C27   1.279       .  A
O21         Cu24   2.022       .  S
O21          C26   1.279       .  A
O22         Cu24   2.019   1_556  S
O22          C25   1.278       .  A
Cu23        Cu24   2.376       .  S
C25         C808   1.468       .  S
C26         C779   1.462       .  S
C27         C792   1.469       .  S
C28         C827   1.466       .  S
O29         Cu37   2.001   1_554  S
O29          C39   1.277       .  A
O30         Cu37   2.001       .  S
O30          C40   1.277       .  A
O31         Cu37   1.990       .  S
O31          C41   1.275       .  A
O32         Cu37   1.986   1_554  S
O32          C42   1.274       .  A
O33         Cu38   2.032   1_554  S
O33          C42   1.280       .  A
O34         Cu38   2.035       .  S
O34          C41   1.281       .  A
O35         Cu38   1.997       .  S
O35          C40   1.276       .  A
O36         Cu38   2.014   1_554  S
O36          C39   1.277       .  A
Cu37        Cu38   2.376       .  S
C39         C712   1.466       .  S
C40         C747   1.460       .  S
C41         C760   1.473       .  S
C42         C728   1.468       .  S
O43         Cu51   2.012       .  S
O43          C53   1.278       .  A
O44         Cu51   2.019   1_554  S
O44          C54   1.278       .  A
O45         Cu51   2.018   1_554  S
O45          C55   1.278       .  A
O46         Cu51   2.015       .  S
O46          C56   1.279       .  A
O47         Cu52   1.987       .  S
O47          C56   1.275       .  A
O48         Cu52   1.983   1_554  S
O48          C55   1.275       .  A
O49         Cu52   1.996   1_554  S
O49          C54   1.277       .  A
O50         Cu52   2.000       .  S
O50          C53   1.276       .  A
Cu51        Cu52   2.377       .  S
C53         C696   1.467       .  S
C54         C664   1.468       .  S
C55         C648   1.462       .  S
C56         C680   1.465       .  S
O57         Cu65   2.004       .  S
O57          C67   1.278       .  A
O58         Cu65   2.013       .  S
O58          C68   1.278       .  A
O59         Cu65   1.995       .  S
O59          C69   1.276       .  A
O60         Cu65   1.997       .  S
O60          C70   1.276       .  A
O61         Cu66   2.011       .  S
O61          C70   1.277       .  A
O62         Cu66   2.011       .  S
O62          C69   1.278       .  A
O63         Cu66   2.013       .  S
O63          C68   1.278       .  A
O64         Cu66   2.019       .  S
O64          C67   1.279       .  A
Cu65        Cu66   2.375       .  S
C67         C616   1.473       .  S
C68         C584   1.473       .  S
C69         C635   1.467       .  S
C70         C603   1.461       .  S
O71         Cu79   1.991       .  S
O71          C81   1.275       .  A
O72         Cu79   1.992   1_455  S
O72          C82   1.277       .  A
O73         Cu79   1.985       .  S
O73          C83   1.276       .  A
O74         Cu79   1.978   1_455  S
O74          C84   1.274       .  A
O75         Cu80   2.022   1_455  S
O75          C84   1.279       .  A
O76         Cu80   2.021       .  S
O76          C83   1.279       .  A
O77         Cu80   2.018   1_455  S
O77          C82   1.278       .  A
O78         Cu80   2.021       .  S
O78          C81   1.279       .  A
Cu79        Cu80   2.375       .  S
C81         C552   1.464       .  S
C82         C520   1.469       .  S
C83         C568   1.469       .  S
C84         C536   1.463       .  S
O85         Cu93   2.003       .  S
O85          C95   1.276       .  A
O86         Cu93   2.011       .  S
O86          C96   1.277       .  A
O87         Cu93   2.033       .  S
O87          C97   1.280       .  A
O88         Cu93   2.029       .  S
O88          C98   1.281       .  A
O89         Cu94   1.998       .  S
O89          C98   1.276       .  A
O90         Cu94   1.990       .  S
O90          C97   1.275       .  A
O91         Cu94   1.997       .  S
O91          C96   1.277       .  A
O92         Cu94   2.003       .  S
O92          C95   1.278       .  A
Cu93        Cu94   2.376       .  S
C95         C472   1.467       .  S
C96         C504   1.465       .  S
C97         C456   1.469       .  S
C98         C491   1.475       .  S
O99        Cu107   2.035   1_655  S
O99         C109   1.281       .  A
O100       Cu107   2.028       .  S
O100        C110   1.280       .  A
O101       Cu107   2.014   1_655  S
O101        C111   1.278       .  A
O102       Cu107   2.013       .  S
O102        C112   1.277       .  A
O103       Cu108   1.997       .  S
O103        C112   1.276       .  A
O104       Cu108   2.005   1_655  S
O104        C111   1.278       .  A
O105       Cu108   1.991       .  S
O105        C110   1.276       .  A
O106       Cu108   1.992   1_655  S
O106        C109   1.275       .  A
Cu107      Cu108   2.376       .  S
C109        C440   1.471       .  S
C110        C408   1.471       .  S
C111        C424   1.471       .  S
C112        C392   1.460       .  S
N113        C118   1.355       .  A
N113        C117   1.353       .  A
N113        H145   1.039       .  S
N114        C121   1.347       .  A
N114        C122   1.350       .  A
N115        C120   1.350       .  A
N115        C119   1.353       .  A
N115        H146   1.039       .  S
N116        C123   1.351       .  A
N116        C124   1.350       .  A
C117        C125   1.385       .  A
C117        C133   1.413       .  A
C118        C134   1.419       .  A
C118        C126   1.389       .  A
C119        C127   1.386       .  A
C119        C136   1.412       .  A
C120        C135   1.412       .  A
C120        C128   1.387       .  A
C121        C133   1.406       .  A
C121        C129   1.386       .  A
C122        C136   1.408       .  A
C122        C130   1.386       .  A
C123        C131   1.387       .  A
C123        C134   1.413       .  A
C124        C132   1.386       .  A
C124        C135   1.411       .  A
C125        C126   1.374       .  A
C125        H137   1.082       .  S
C126        H138   1.080       .  S
C127        C128   1.375       .  A
C127        H139   1.083       .  S
C128        H140   1.082       .  S
C129        C130   1.373       .  A
C129        H141   1.082       .  S
C130        H142   1.082       .  S
C131        C132   1.375       .  A
C131        H143   1.082       .  S
C132        H144   1.082       .  S
C133        C840   1.470       .  S
C134        C795   1.484       .  S
C135        C411   1.476       .  S
C136        C587   1.480       .  S
N147        C152   1.354       .  A
N147        C151   1.354       .  A
N147        H179   1.027       .  S
N148        C155   1.349       .  A
N148        C156   1.349       .  A
N149        C154   1.356       .  A
N149        C153   1.355       .  A
N149        H180   1.039       .  S
N150        C157   1.348       .  A
N150        C158   1.348       .  A
C151        C159   1.388       .  A
C151        C167   1.420       .  A
C152        C168   1.419       .  A
C152        C160   1.388       .  A
C153        C161   1.386       .  A
C153        C170   1.416       .  A
C154        C169   1.416       .  A
C154        C162   1.387       .  A
C155        C167   1.414       .  A
C155        C163   1.387       .  A
C156        C170   1.409       .  A
C156        C164   1.385       .  A
C157        C165   1.387       .  A
C157        C168   1.412       .  A
C158        C166   1.386       .  A
C158        C169   1.410       .  A
C159        C160   1.369       .  A
C159        H171   1.082       .  S
C160        H172   1.082       .  S
C161        C162   1.371       .  A
C161        H173   1.082       .  S
C162        H174   1.082       .  S
C163        C164   1.373       .  A
C163        H175   1.082       .  S
C164        H176   1.082       .  S
C165        C166   1.371       .  A
C165        H177   1.082       .  S
C166        H178   1.082       .  S
C167        C651   1.475       .  S
C168        C859   1.474       .  S
C169        C475   1.482       .  S
C170        C427   1.482       .  S
N181        C186   1.351       .  A
N181        C185   1.351       .  A
N181        H213   1.036       .  S
N182        C189   1.352       .  A
N182        C190   1.350       .  A
N183        C188   1.357       .  A
N183        C187   1.355       .  A
N183        H214   1.032       .  S
N184        C191   1.350       .  A
N184        C192   1.350       .  A
C185        C193   1.388       .  A
C185        C201   1.413       .  A
C186        C202   1.409       .  A
C186        C194   1.386       .  A
C187        C195   1.387       .  A
C187        C204   1.419       .  A
C188        C203   1.419       .  A
C188        C196   1.387       .  A
C189        C201   1.412       .  A
C189        C197   1.386       .  A
C190        C204   1.411       .  A
C190        C198   1.386       .  A
C191        C199   1.386       .  A
C191        C202   1.411       .  A
C192        C200   1.386       .  A
C192        C203   1.411       .  A
C193        C194   1.375       .  A
C193        H205   1.083       .  S
C194        H206   1.083       .  S
C195        C196   1.373       .  A
C195        H207   1.082       .  S
C196        H208   1.082       .  S
C197        C198   1.374       .  A
C197        H209   1.081       .  S
C198        H210   1.082       .  S
C199        C200   1.374       .  A
C199        H211   1.082       .  S
C200        H212   1.082       .  S
C201        C875   1.480       .  S
C202        C699   1.475       .  S
C203        C443   1.482       .  S
C204        C459   1.479       .  S
N215        C220   1.352       .  A
N215        C219   1.354       .  A
N215        H247   1.041       .  S
N216        C223   1.353       .  A
N216        C224   1.349       .  A
N217        C222   1.358       .  A
N217        C221   1.356       .  A
N217        H248   1.037       .  S
N218        C225   1.350       .  A
N218        C226   1.350       .  A
C219        C227   1.386       .  A
C219        C235   1.413       .  A
C220        C236   1.412       .  A
C220        C228   1.387       .  A
C221        C229   1.387       .  A
C221        C238   1.421       .  A
C222        C237   1.422       .  A
C222        C230   1.387       .  A
C223        C235   1.413       .  A
C223        C231   1.385       .  A
C224        C238   1.412       .  A
C224        C232   1.387       .  A
C225        C233   1.386       .  A
C225        C236   1.410       .  A
C226        C234   1.387       .  A
C226        C237   1.411       .  A
C227        C228   1.373       .  A
C227        H239   1.082       .  S
C228        H240   1.082       .  S
C229        C230   1.374       .  A
C229        H241   1.082       .  S
C230        H242   1.081       .  S
C231        C232   1.375       .  A
C231        H243   1.081       .  S
C232        H244   1.082       .  S
C233        C234   1.374       .  A
C233        H245   1.082       .  S
C234        H246   1.082       .  S
C235        C488   1.491       .  S
C236        C571   1.482       .  S
C237        C667   1.485       .  S
C238        C715   1.481       .  S
N249        C254   1.355       .  A
N249        C253   1.356       .  A
N249        H281   1.037       .  S
N250        C257   1.350       .  A
N250        C258   1.349       .  A
N251        C256   1.354       .  A
N251        C255   1.353       .  A
N251        H282   1.040       .  S
N252        C259   1.350       .  A
N252        C260   1.351       .  A
C253        C261   1.388       .  A
C253        C269   1.420       .  A
C254        C270   1.419       .  A
C254        C262   1.387       .  A
C255        C263   1.387       .  A
C255        C272   1.412       .  A
C256        C271   1.415       .  A
C256        C264   1.387       .  A
C257        C269   1.411       .  A
C257        C265   1.387       .  A
C258        C272   1.409       .  A
C258        C266   1.386       .  A
C259        C267   1.387       .  A
C259        C270   1.412       .  A
C260        C268   1.385       .  A
C260        C271   1.411       .  A
C261        C262   1.371       .  A
C261        H273   1.081       .  S
C262        H274   1.081       .  S
C263        C264   1.371       .  A
C263        H275   1.082       .  S
C264        H276   1.082       .  S
C265        C266   1.372       .  A
C265        H277   1.082       .  S
C266        H278   1.082       .  S
C267        C268   1.373       .  A
C267        H279   1.082       .  S
C268        H280   1.081       .  S
C269        C555   1.480       .  S
C270        C507   1.479       .  S
C271        C763   1.487       .  S
C272        C683   1.477       .  S
N283        C288   1.354       .  A
N283        C287   1.354       .  A
N283        H315   1.037       .  S
N284        C291   1.351       .  A
N284        C292   1.351       .  A
N285        C290   1.352       .  A
N285        C289   1.352       .  A
N285        H316   1.041       .  S
N286        C293   1.348       .  A
N286        C294   1.349       .  A
C287        C295   1.388       .  A
C287        C303   1.418       .  A
C288        C304   1.418       .  A
C288        C296   1.388       .  A
C289        C297   1.388       .  A
C289        C306   1.414       .  A
C290        C305   1.410       .  A
C290        C298   1.386       .  A
C291        C303   1.412       .  A
C291        C299   1.386       .  A
C292        C306   1.412       .  A
C292        C300   1.386       .  A
C293        C301   1.388       .  A
C293        C304   1.410       .  A
C294        C302   1.384       .  A
C294        C305   1.406       .  A
C295        C296   1.370       .  A
C295        H307   1.081       .  S
C296        H308   1.081       .  S
C297        C298   1.370       .  A
C297        H309   1.082       .  S
C298        H310   1.082       .  S
C299        C300   1.375       .  A
C299        H311   1.082       .  S
C300        H312   1.082       .  S
C301        C302   1.371       .  A
C301        H313   1.081       .  S
C302        H314   1.082       .  S
C303        C731   1.479       .  S
C304        C776   1.476       .  S
C305        C523   1.476       .  S
C306        C632   1.482       .  S
N317        C322   1.354       .  A
N317        C321   1.357       .  A
N317        H349   1.039       .  S
N318        C325   1.349       .  A
N318        C326   1.348       .  A
N319        C324   1.356       .  A
N319        C323   1.354       .  A
N319        H350   1.038       .  S
N320        C327   1.348       .  A
N320        C328   1.350       .  A
C321        C329   1.388       .  A
C321        C337   1.418       .  A
C322        C338   1.416       .  A
C322        C330   1.387       .  A
C323        C331   1.388       .  A
C323        C340   1.417       .  A
C324        C339   1.414       .  A
C324        C332   1.386       .  A
C325        C337   1.410       .  A
C325        C333   1.386       .  A
C326        C340   1.409       .  A
C326        C334   1.386       .  A
C327        C335   1.387       .  A
C327        C338   1.411       .  A
C328        C336   1.385       .  A
C328        C339   1.411       .  A
C329        C330   1.369       .  A
C329        H341   1.082       .  S
C330        H342   1.083       .  S
C331        C332   1.368       .  A
C331        H343   1.082       .  S
C332        H344   1.082       .  S
C333        C334   1.370       .  A
C333        H345   1.081       .  S
C334        H346   1.081       .  S
C335        C336   1.371       .  A
C335        H347   1.082       .  S
C336        H348   1.081       .  S
C337        C824   1.481       .  S
C338        C744   1.476       .  S
C339        C619   1.483       .  S
C340        C539   1.477       .  S
N351        C356   1.350       .  A
N351        C355   1.352       .  A
N351        H383   1.040       .  S
N352        C359   1.350       .  A
N352        C360   1.348       .  A
N353        C358   1.354       .  A
N353        C357   1.352       .  A
N353        H384   1.037       .  S
N354        C361   1.348       .  A
N354        C362   1.349       .  A
C355        C363   1.386       .  A
C355        C371   1.410       .  A
C356        C372   1.412       .  A
C356        C364   1.388       .  A
C357        C365   1.387       .  A
C357        C374   1.415       .  A
C358        C373   1.415       .  A
C358        C366   1.387       .  A
C359        C371   1.408       .  A
C359        C367   1.385       .  A
C360        C374   1.409       .  A
C360        C368   1.387       .  A
C361        C369   1.386       .  A
C361        C372   1.406       .  A
C362        C370   1.386       .  A
C362        C373   1.407       .  A
C363        C364   1.375       .  A
C363        H375   1.082       .  S
C364        H376   1.083       .  S
C365        C366   1.375       .  A
C365        H377   1.082       .  S
C366        H378   1.081       .  S
C367        C368   1.373       .  A
C367        H379   1.082       .  S
C368        H380   1.082       .  S
C369        C370   1.373       .  A
C369        H381   1.082       .  S
C370        H382   1.082       .  S
C371        C811   1.479       .  S
C372        C891   1.474       .  S
C373        C600   1.476       .  S
C374        C395   1.472       .  S
C385        C390   1.388       .  A
C385        C386   1.403       .  A
C385        S391   1.710       .  A
C386        C387   1.404       .  A
C386        H397   1.083       .  S
C387        C396   1.369       .  A
C387        C388   1.388       .  A
C388        C389   1.396       .  A
C388        S394   1.703       .  A
C389        C390   1.398       .  A
C389        H398   1.083       .  S
C390        C393   1.364       .  A
S391        C392   1.722       .  A
C392        C393   1.380       .  A
C393        H399   1.083       .  S
S394        C395   1.716       .  A
C395        C396   1.384       .  A
C396        H400   1.083       .  S
C401        C406   1.388       .  A
C401        C402   1.395       .  A
C401        S407   1.698       .  A
C402        C403   1.395       .  A
C402        H413   1.083       .  S
C403        C412   1.362       .  A
C403        C404   1.387       .  A
C404        C405   1.407       .  A
C404        S410   1.714       .  A
C405        C406   1.408       .  A
C405        H414   1.083       .  S
C406        C409   1.376       .  A
S407        C408   1.720       .  A
C408        C409   1.390       .  A
C409        H415   1.083       .  S
S410        C411   1.724       .  A
C411        C412   1.380       .  A
C412        H416   1.083       .  S
C417        C422   1.387       .  A
C417        C418   1.397       .  A
C417        S423   1.703       .  A
C418        C419   1.398       .  A
C418        H429   1.083       .  S
C419        C428   1.364       .  A
C419        C420   1.387       .  A
C420        C421   1.405       .  A
C420        S426   1.712       .  A
C421        C422   1.406       .  A
C421        H430   1.083       .  S
C422        C425   1.373       .  A
S423        C424   1.720       .  A
C424        C425   1.389       .  A
C425        H431   1.083       .  S
S426        C427   1.725       .  A
C427        C428   1.383       .  A
C428        H432   1.083       .  S
C433        C438   1.387       .  A
C433        C434   1.404       .  A
C433        S439   1.713       .  A
C434        C435   1.405       .  A
C434        H445   1.083       .  S
C435        C444   1.372       .  A
C435        C436   1.388       .  A
C436        C437   1.401       .  A
C436        S442   1.706       .  A
C437        C438   1.402       .  A
C437        H446   1.083       .  S
C438        C441   1.369       .  A
S439        C440   1.722       .  A
C440        C441   1.386       .  A
C441        H447   1.083       .  S
S442        C443   1.722       .  A
C443        C444   1.386       .  A
C444        H448   1.083       .  S
C449        C454   1.387       .  A
C449        C450   1.406       .  A
C449        S455   1.715       .  A
C450        C451   1.407       .  A
C450        H461   1.083       .  S
C451        C460   1.374       .  A
C451        C452   1.388       .  A
C452        C453   1.397       .  A
C452        S458   1.704       .  A
C453        C454   1.399       .  A
C453        H462   1.083       .  S
C454        C457   1.366       .  A
S455        C456   1.723       .  A
C456        C457   1.383       .  A
C457        H463   1.083       .  S
S458        C459   1.718       .  A
C459        C460   1.387       .  A
C460        H464   1.083       .  S
C465        C470   1.387       .  A
C465        C466   1.403       .  A
C465        S471   1.709       .  A
C466        C467   1.404       .  A
C466        H477   1.083       .  S
C467        C476   1.370       .  A
C467        C468   1.388       .  A
C468        C469   1.397       .  A
C468        S474   1.702       .  A
C469        C470   1.398       .  A
C469        H478   1.083       .  S
C470        C473   1.365       .  A
S471        C472   1.724       .  A
C472        C473   1.383       .  A
C473        H479   1.083       .  S
S474        C475   1.720       .  A
C475        C476   1.388       .  A
C476        H480   1.083       .  S
C481        C486   1.386       .  A
C481        C482   1.404       .  A
C481        S487   1.711       .  A
C482        C483   1.404   1_565  A
C482        H493   1.083   1_565  S
C483        C492   1.373       .  A
C483        C484   1.387       .  A
C484        C485   1.401   1_545  A
C484        S490   1.706       .  A
C485        C486   1.402       .  A
C485        H494   1.083       .  S
C486        C489   1.369       .  A
S487        C488   1.726       .  A
C488        C489   1.389       .  A
C489        H495   1.083       .  S
S490        C491   1.725       .  A
C491        C492   1.387       .  A
C492        H496   1.083       .  S
C497        C502   1.387       .  A
C497        C498   1.403       .  A
C497        S503   1.710   1_565  A
C498        C499   1.404       .  A
C498        H509   1.083       .  S
C499        C508   1.372       .  A
C499        C500   1.388       .  A
C500        C501   1.397       .  A
C500        S506   1.701       .  A
C501        C502   1.398       .  A
C501        H510   1.083       .  S
C502        C505   1.365   1_565  A
S503        C504   1.723       .  A
C504        C505   1.382       .  A
C505        H511   1.083       .  S
S506        C507   1.719       .  A
C507        C508   1.387       .  A
C508        H512   1.083       .  S
C513        C518   1.387       .  A
C513        C514   1.405       .  A
C513        S519   1.712       .  A
C514        C515   1.406       .  A
C514        H525   1.083       .  S
C515        C524   1.372       .  A
C515        C516   1.388       .  A
C516        C517   1.394       .  A
C516        S522   1.699       .  A
C517        C518   1.396       .  A
C517        H526   1.083       .  S
C518        C521   1.362       .  A
S519        C520   1.725       .  A
C520        C521   1.382       .  A
C521        H527   1.083       .  S
S522        C523   1.718       .  A
C523        C524   1.387       .  A
C524        H528   1.083       .  S
C529        C534   1.388       .  A
C529        C530   1.393       .  A
C529        S535   1.697       .  A
C530        C531   1.394       .  A
C530        H541   1.083       .  S
C531        C540   1.359       .  A
C531        C532   1.387       .  A
C532        C533   1.403       .  A
C532        S538   1.711       .  A
C533        C534   1.404       .  A
C533        H542   1.083       .  S
C534        C537   1.371       .  A
S535        C536   1.719       .  A
C536        C537   1.386       .  A
C537        H543   1.083       .  S
S538        C539   1.724       .  A
C539        C540   1.380       .  A
C540        H544   1.084       .  S
C545        C550   1.388       .  A
C545        C546   1.398       .  A
C545        S551   1.702       .  A
C546        C547   1.399       .  A
C546        H557   1.083       .  S
C547        C556   1.366       .  A
C547        C548   1.387       .  A
C548        C549   1.403       .  A
C548        S554   1.709       .  A
C549        C550   1.404       .  A
C549        H558   1.083       .  S
C550        C553   1.373       .  A
S551        C552   1.720       .  A
C552        C553   1.385       .  A
C553        H559   1.083       .  S
S554        C555   1.722       .  A
C555        C556   1.384       .  A
C556        H560   1.083       .  S
C561        C566   1.386       .  A
C561        C562   1.404       .  A
C561        S567   1.713       .  A
C562        C563   1.405       .  A
C562        H573   1.083       .  S
C563        C572   1.371       .  A
C563        C564   1.387       .  A
C564        C565   1.395       .  A
C564        S570   1.700       .  A
C565        C566   1.397       .  A
C565        H574   1.083       .  S
C566        C569   1.362       .  A
S567        C568   1.724       .  A
C568        C569   1.384       .  A
C569        H575   1.083       .  S
S570        C571   1.721       .  A
C571        C572   1.388       .  A
C572        H576   1.083       .  S
C577        C582   1.387       .  A
C577        C578   1.398       .  A
C577        S583   1.705       .  A
C578        C579   1.399       .  A
C578        H589   1.083       .  S
C579        C588   1.364       .  A
C579        C580   1.387       .  A
C580        C581   1.404       .  A
C580        S586   1.714       .  A
C581        C582   1.406       .  A
C581        H590   1.083       .  S
C582        C585   1.372       .  A
S583        C584   1.721       .  A
C584        C585   1.389       .  A
C585        H591   1.083       .  S
S586        C587   1.725       .  A
C587        C588   1.382       .  A
C588        H592   1.083       .  S
C593        C598   1.388       .  A
C593        C594   1.399       .  A
C593        S599   1.705       .  A
C594        C595   1.400       .  A
C594        H605   1.083       .  S
C595        C604   1.366       .  A
C595        C596   1.388       .  A
C596        C597   1.401       .  A
C596        S602   1.708       .  A
C597        C598   1.403       .  A
C597        H606   1.083       .  S
C598        C601   1.369       .  A
S599        C600   1.720       .  A
C600        C601   1.384       .  A
C601        H607   1.083       .  S
S602        C603   1.720       .  A
C603        C604   1.383       .  A
C604        H608   1.083       .  S
C609        C614   1.387       .  A
C609        C610   1.405       .  A
C609        S615   1.711       .  A
C610        C611   1.405       .  A
C610        H621   1.083       .  S
C611        C620   1.373       .  A
C611        C612   1.387       .  A
C612        C613   1.398       .  A
C612        S618   1.702       .  A
C613        C614   1.399       .  A
C613        H622   1.083       .  S
C614        C617   1.368   1_565  A
S615        C616   1.725   1_565  A
C616        C617   1.385       .  A
C617        H623   1.083       .  S
S618        C619   1.721       .  A
C619        C620   1.388       .  A
C620        H624   1.083       .  S
C625        C630   1.387       .  A
C625        C626   1.402       .  A
C625        S631   1.709       .  A
C626        C627   1.403   1_565  A
C626        H637   1.083       .  S
C627        C636   1.370       .  A
C627        C628   1.387       .  A
C628        C629   1.397   1_545  A
C628        S634   1.702       .  A
C629        C630   1.399       .  A
C629        H638   1.083       .  S
C630        C633   1.365       .  A
S631        C632   1.723       .  A
C632        C633   1.386       .  A
C633        H639   1.083       .  S
S634        C635   1.721       .  A
C635        C636   1.386       .  A
C636        H640   1.083       .  S
C641        C646   1.387       .  A
C641        C642   1.400       .  A
C641        S647   1.710       .  A
C642        C643   1.402       .  A
C642        H653   1.083       .  S
C643        C652   1.367       .  A
C643        C644   1.388       .  A
C644        C645   1.397       .  A
C644        S650   1.704       .  A
C645        C646   1.399       .  A
C645        H654   1.083       .  S
C646        C649   1.362       .  A
S647        C648   1.720       .  A
C648        C649   1.383       .  A
C649        H655   1.083       .  S
S650        C651   1.720       .  A
C651        C652   1.383       .  A
C652        H656   1.083       .  S
C657        C662   1.387       .  A
C657        C658   1.406       .  A
C657        S663   1.714       .  A
C658        C659   1.407       .  A
C658        H669   1.083       .  S
C659        C668   1.375       .  A
C659        C660   1.388       .  A
C660        C661   1.398       .  A
C660        S666   1.703       .  A
C661        C662   1.399       .  A
C661        H670   1.083       .  S
C662        C665   1.365       .  A
S663        C664   1.723       .  A
C664        C665   1.383       .  A
C665        H671   1.083       .  S
S666        C667   1.721       .  A
C667        C668   1.389       .  A
C668        H672   1.083       .  S
C673        C678   1.387       .  A
C673        C674   1.399       .  A
C673        S679   1.707       .  A
C674        C675   1.400       .  A
C674        H685   1.083       .  S
C675        C684   1.366       .  A
C675        C676   1.388       .  A
C676        C677   1.399       .  A
C676        S682   1.706       .  A
C677        C678   1.401       .  A
C677        H686   1.083       .  S
C678        C681   1.366       .  A
S679        C680   1.720       .  A
C680        C681   1.386       .  A
C681        H687   1.083       .  S
S682        C683   1.722       .  A
C683        C684   1.383       .  A
C684        H688   1.083       .  S
C689        C694   1.387       .  A
C689        C690   1.398       .  A
C689        S695   1.704       .  A
C690        C691   1.399       .  A
C690        H701   1.083       .  S
C691        C700   1.365       .  A
C691        C692   1.388       .  A
C692        C693   1.401       .  A
C692        S698   1.709       .  A
C693        C694   1.403       .  A
C693        H702   1.083       .  S
C694        C697   1.369       .  A
S695        C696   1.721       .  A
C696        C697   1.386       .  A
C697        H703   1.083       .  S
S698        C699   1.721       .  A
C699        C700   1.382       .  A
C700        H704   1.083       .  S
C705        C710   1.387       .  A
C705        C706   1.404       .  A
C705        S711   1.713       .  A
C706        C707   1.406       .  A
C706        H717   1.083       .  S
C707        C716   1.373       .  A
C707        C708   1.388       .  A
C708        C709   1.397       .  A
C708        S714   1.704       .  A
C709        C710   1.399       .  A
C709        H718   1.083       .  S
C710        C713   1.366       .  A
S711        C712   1.723       .  A
C712        C713   1.382       .  A
C713        H719   1.083       .  S
S714        C715   1.720       .  A
C715        C716   1.387       .  A
C716        H720   1.083       .  S
C721        C726   1.388       .  A
C721        C722   1.398       .  A
C721        S727   1.701       .  A
C722        C723   1.398       .  A
C722        H733   1.083       .  S
C723        C732   1.366       .  A
C723        C724   1.387       .  A
C724        C725   1.405       .  A
C724        S730   1.711       .  A
C725        C726   1.405       .  A
C725        H734   1.083       .  S
C726        C729   1.375       .  A
S727        C728   1.720       .  A
C728        C729   1.387       .  A
C729        H735   1.083       .  S
S730        C731   1.722       .  A
C731        C732   1.383       .  A
C732        H736   1.083       .  S
C737        C742   1.388       .  A
C737        C738   1.398       .  A
C737        S743   1.702       .  A
C738        C739   1.399       .  A
C738        H749   1.083       .  S
C739        C748   1.365       .  A
C739        C740   1.388       .  A
C740        C741   1.398       .  A
C740        S746   1.704       .  A
C741        C742   1.400       .  A
C741        H750   1.083       .  S
C742        C745   1.366       .  A
S743        C744   1.721       .  A
C744        C745   1.383       .  A
C745        H751   1.083       .  S
S746        C747   1.720       .  A
C747        C748   1.383       .  A
C748        H752   1.083       .  S
C753        C758   1.387       .  A
C753        C754   1.397       .  A
C753        S759   1.699       .  A
C754        C755   1.397       .  A
C754        H765   1.083       .  S
C755        C764   1.365       .  A
C755        C756   1.386       .  A
C756        C757   1.407       .  A
C756        S762   1.713       .  A
C757        C758   1.407       .  A
C757        H766   1.083       .  S
C758        C761   1.377       .  A
S759        C760   1.722       .  A
C760        C761   1.390       .  A
C761        H767   1.083       .  S
S762        C763   1.728       .  A
C763        C764   1.384       .  A
C764        H768   1.083       .  S
C769        C774   1.387       .  A
C769        C770   1.402       .  A
C769        S775   1.709       .  A
C770        C771   1.403       .  A
C770        H781   1.083       .  S
C771        C780   1.371       .  A
C771        C772   1.388       .  A
C772        C773   1.396       .  A
C772        S778   1.701       .  A
C773        C774   1.397       .  A
C773        H782   1.083       .  S
C774        C777   1.363       .  A
S775        C776   1.722       .  A
C776        C777   1.382       .  A
C777        H783   1.083       .  S
S778        C779   1.719       .  A
C779        C780   1.385       .  A
C780        H784   1.083       .  S
C785        C790   1.387       .  A
C785        C786   1.404       .  A
C785        S791   1.711       .  A
C786        C787   1.405       .  A
C786        H797   1.083       .  S
C787        C796   1.373       .  A
C787        C788   1.387       .  A
C788        C789   1.399       .  A
C788        S794   1.705       .  A
C789        C790   1.400       .  A
C789        H798   1.083       .  S
C790        C793   1.368       .  A
S791        C792   1.722       .  A
C792        C793   1.385       .  A
C793        H799   1.083       .  S
S794        C795   1.722       .  A
C795        C796   1.388       .  A
C796        H800   1.083       .  S
C801        C806   1.386       .  A
C801        C802   1.404       .  A
C801        S807   1.713       .  A
C802        C803   1.406       .  A
C802        H813   1.083       .  S
C803        C812   1.371       .  A
C803        C804   1.388       .  A
C804        C805   1.395       .  A
C804        S810   1.701       .  A
C805        C806   1.397       .  A
C805        H814   1.083       .  S
C806        C809   1.361       .  A
S807        C808   1.724       .  A
C808        C809   1.383       .  A
C809        H815   1.083       .  S
S810        C811   1.719       .  A
C811        C812   1.387       .  A
C812        H816   1.083       .  S
C817        C822   1.388       .  A
C817        C818   1.396       .  A
C817        S823   1.702       .  A
C818        C819   1.398       .  A
C818        H829   1.083       .  S
C819        C828   1.363       .  A
C819        C820   1.387       .  A
C820        C821   1.402       .  A
C820        S826   1.711       .  A
C821        C822   1.404       .  A
C821        H830   1.083       .  S
C822        C825   1.370       .  A
S823        C824   1.720       .  A
C824        C825   1.387       .  A
C825        H831   1.083       .  S
S826        C827   1.723       .  A
C827        C828   1.383       .  A
C828        H832   1.083       .  S
C833        C838   1.388       .  A
C833        C834   1.401       .  A
C833        S839   1.706       .  A
C834        C835   1.402       .  A
C834        H845   1.083       .  S
C835        C844   1.371       .  A
C835        C836   1.389       .  A
C836        C837   1.398       .  A
C836        S842   1.702       .  A
C837        C838   1.398       .  A
C837        H846   1.083       .  S
C838        C841   1.366       .  A
S839        C840   1.718       .  A
C840        C841   1.380       .  A
C841        H847   1.083       .  S
S842        C843   1.718       .  A
C843        C844   1.382       .  A
C844        H848   1.083       .  S
C849        C854   1.387       .  A
C849        C850   1.403       .  A
C849        S855   1.712       .  A
C850        C851   1.405       .  A
C850        H861   1.083       .  S
C851        C860   1.369       .  A
C851        C852   1.388       .  A
C852        C853   1.392       .  A
C852        S858   1.698       .  A
C853        C854   1.394       .  A
C853        H862   1.083       .  S
C854        C857   1.358       .  A
S855        C856   1.722       .  A
C856        C857   1.379       .  A
C857        H863   1.084       .  S
S858        C859   1.717       .  A
C859        C860   1.386       .  A
C860        H864   1.083       .  S
C865        C870   1.387       .  A
C865        C866   1.396       .  A
C865        S871   1.701       .  A
C866        C867   1.398       .  A
C866        H877   1.083       .  S
C867        C876   1.362       .  A
C867        C868   1.387       .  A
C868        C869   1.402       .  A
C868        S874   1.712       .  A
C869        C870   1.404       .  A
C869        H878   1.083       .  S
C870        C873   1.369       .  A
S871        C872   1.720       .  A
C872        C873   1.386       .  A
C873        H879   1.083       .  S
S874        C875   1.724       .  A
C875        C876   1.383       .  A
C876        H880   1.083       .  S
C881        C886   1.388       .  A
C881        C882   1.394       .  A
C881        S887   1.698       .  A
C882        C883   1.395       .  A
C882        H893   1.083       .  S
C883        C892   1.360       .  A
C883        C884   1.387       .  A
C884        C885   1.402       .  A
C884        S890   1.708       .  A
C885        C886   1.403       .  A
C885        H894   1.083       .  S
C886        C889   1.370       .  A
S887        C888   1.720       .  A
C888        C889   1.386       .  A
C889        H895   1.083       .  S
S890        C891   1.723       .  A
C891        C892   1.381       .  A
C892        H896   1.084       .  S
