geometry optimzed in LAMMPS
_audit_creation_date              2020-12-01 
_audit_creation_method            'lammps2cif' 
_symmetry_space_group_name_H-M    'P1' 
_symmetry_Int_Tables_number       1 
_symmetry_cell_setting            triclinic 
loop_ 
_symmetry_equiv_pos_as_xyz 
  x,y,z 
_cell_length_a                    57.07699809 
_cell_length_b                    38.66770968812829 
_cell_length_c                    49.01722774492349 
_cell_angle_alpha                 89.9956339096241 
_cell_angle_beta                  89.90126733419666 
_cell_angle_gamma                 89.9591285866933 
loop_ 
_atom_site_label 
_atom_site_type_symbol 
_atom_site_fract_x 
_atom_site_fract_y 
_atom_site_fract_z 
_atom_site_charge 
N1          N  0.14323602  0.05917075  0.41626265    -0.27400
N2          N  0.16316117  0.04464566  0.40855317    -0.35200
C3          C  0.18059699  0.05644730  0.42445284     0.01000
C4          C  0.17118877  0.07983775  0.44274765     0.07000
C5          C  0.14751545  0.08103525  0.43697726    -0.06100
H6          H  0.19879479  0.04897094  0.42251892     0.07700
H7          H  0.13430016  0.09623560  0.44734992     0.08900
Cu8        Cu  0.16588524  0.51029324  0.37631670     0.44200
Cu9        Cu  0.11089539  0.04712531  0.39959767     0.42000
Cu10       Cu  0.11105505  0.47633040  0.35142647     0.43900
N11         N  0.16348376  0.47597880  0.34403096    -0.34700
N12         N  0.14346979  0.46240892  0.33573379    -0.29000
C13         C  0.14779692  0.44032791  0.31514861    -0.05100
C14         C  0.17161935  0.44040573  0.31004967     0.07100
C15         C  0.18105453  0.46336820  0.32862575     0.00900
H16         H  0.13451727  0.42586456  0.30431885     0.08600
H17         H  0.19933184  0.47008556  0.33102215     0.07600
N18         N  0.08077827  0.49870099  0.36680728    -0.36200
N19         N  0.08069903  0.02563908  0.38341046    -0.28400
C20         C  0.05839613  0.03479091  0.38862074    -0.03600
C21         C  0.04373434  0.01227370  0.37485353     0.05000
C22         C  0.05854231  0.48969973  0.36128557     0.03100
H23         H  0.05325991  0.05575402  0.40197863     0.08200
H24         H  0.05355619  0.46858782  0.34802533     0.07000
N25         N  0.76970181  0.45917306  0.41516537    -0.27400
N26         N  0.74956114  0.47260391  0.40709288    -0.35200
C27         C  0.73222393  0.46016015  0.42287576     0.01000
C28         C  0.74194490  0.43751010  0.44148130     0.07000
C29         C  0.76568502  0.43733665  0.43598805    -0.06100
H30         H  0.71393278  0.46707496  0.42091192     0.07700
H31         H  0.77914354  0.42327820  0.44687397     0.08900
Cu32       Cu  0.74656989  0.00732051  0.37518823     0.44200
Cu33       Cu  0.80191858  0.47350858  0.39937532     0.42000
Cu34       Cu  0.80126435  0.04445489  0.35167262     0.43900
N35         N  0.74888784  0.04279535  0.34373033    -0.34700
N36         N  0.76876722  0.05735567  0.33596452    -0.29000
C37         C  0.76433888  0.07985446  0.31573746    -0.05100
C38         C  0.74061100  0.07903879  0.31033009     0.07100
C39         C  0.73130621  0.05523330  0.32834101     0.00900
H40         H  0.77750933  0.09508659  0.30533684     0.08600
H41         H  0.71312184  0.04775010  0.33032559     0.07600
N42         N  0.83171550  0.02309383  0.36722321    -0.36200
N43         N  0.83194486  0.99598969  0.38365271    -0.28400
C44         C  0.85427815  0.98715566  0.38884659    -0.03600
C45         C  0.86878343  0.01009842  0.37529891     0.05000
C46         C  0.85390440  0.03260774  0.36185862     0.03100
H47         H  0.85954597  0.46601527  0.40194660     0.08200
H48         H  0.85882513  0.05387691  0.34870319     0.07000
O49         O  0.23740573  0.37632087  0.22251621    -0.73000
O50         O  0.20398759  0.43065511  0.28042008    -0.74000
O51         O  0.23747551  0.37613540  0.27970342    -0.62600
O52         O  0.20395273  0.43057649  0.22208321    -0.71000
O53         O  0.17490978  0.39234929  0.22255350    -0.70600
O54         O  0.20821693  0.33826912  0.28045953    -0.61800
O55         O  0.17476692  0.39274240  0.27992063    -0.74300
O56         O  0.20840156  0.33803338  0.22226512    -0.73100
Cu57       Cu  0.22167342  0.40484556  0.25119605     1.04600
Cu58       Cu  0.19057444  0.36396590  0.25131780     1.04300
C59         C  0.22824673  0.34853671  0.21342582     0.93200
C60         C  0.18408194  0.42033969  0.28918849     0.92300
C61         C  0.22821019  0.34846727  0.28892946     0.84500
C62         C  0.18418091  0.41994902  0.21322331     0.90700
N63         N  0.26938852  0.30455937  0.33341934    -0.27400
N64         N  0.24934521  0.29238982  0.34298011    -0.35200
C65         C  0.23156523  0.30584747  0.32846741     0.01000
C66         C  0.24090255  0.32800564  0.30923120     0.07000
C67         C  0.26487848  0.32667680  0.31293263    -0.06100
H68         H  0.21321967  0.30040690  0.33202784     0.07700
H69         H  0.27809610  0.34034535  0.30133240     0.08900
Cu70       Cu  0.24697278  0.25952802  0.37612481     0.44200
Cu71       Cu  0.30197051  0.28996999  0.34810566     0.42000
Cu72       Cu  0.30183574  0.23313487  0.40678024     0.43900
N73         N  0.24924628  0.22677458  0.40934118    -0.34700
N74         N  0.26930128  0.21598548  0.41980378    -0.29000
C75         C  0.26478501  0.19380838  0.44026149    -0.05100
C76         C  0.24076908  0.19107655  0.44303698     0.07100
C77         C  0.23142020  0.21240405  0.42326074     0.00900
H78         H  0.27799920  0.18135040  0.45265354     0.08600
H79         H  0.21305930  0.21687426  0.41907964     0.07600
N80         N  0.33204291  0.25282866  0.38920495    -0.36200
N81         N  0.33214876  0.27222619  0.36698100    -0.28400
C82         C  0.35446493  0.27854851  0.35967145    -0.03600
C83         C  0.36900566  0.26288549  0.37850215     0.05000
C84         C  0.35426597  0.24695407  0.39700398     0.03100
H85         H  0.35970013  0.29371690  0.34214155     0.08200
H86         H  0.35931873  0.23141848  0.41439418     0.07000
N87         N  0.64359742  0.21164292  0.33704531    -0.27400
N88         N  0.66367125  0.22475390  0.34560500    -0.35200
C89         C  0.68119806  0.21229119  0.33007984     0.01000
C90         C  0.67167159  0.18992355  0.31114031     0.07000
C91         C  0.64784355  0.18997923  0.31616474    -0.06100
H92         H  0.69950559  0.21874955  0.33260900     0.07700
H93         H  0.63451173  0.17595241  0.30507413     0.08900
Cu94       Cu  0.66632069  0.25839080  0.37827159     0.44200
Cu95       Cu  0.61123448  0.22556575  0.35280595     0.42000
Cu96       Cu  0.61137498  0.28984942  0.40623713     0.43900
N97         N  0.66403688  0.29198863  0.41101204    -0.34700
N98         N  0.64404008  0.30450305  0.42047042    -0.29000
C99         C  0.64860746  0.32662761  0.44091837    -0.05100
C100        C  0.67256684  0.32759736  0.44472904     0.07100
C101        C  0.68184616  0.30527845  0.42555331     0.00900
H102        H  0.63542714  0.34043932  0.45248970     0.08600
H103        H  0.70016789  0.29952332  0.42211695     0.07600
N104        N  0.58108685  0.26978229  0.38926180    -0.36200
N105        N  0.58103781  0.24633990  0.36966012    -0.28400
C106        C  0.55876214  0.23900396  0.36295426    -0.03600
C107        C  0.54399095  0.25864342  0.37924855     0.05000
C108        C  0.55884339  0.27784072  0.39569683     0.03100
H109        H  0.55378188  0.22041204  0.34753823     0.08200
H110        H  0.55394707  0.29663385  0.41102399     0.07000
O111        O  0.70516289  0.33752175  0.47370332    -0.73000
O112        O  0.73931423  0.39275165  0.03031845    -0.74000
O113        O  0.70528321  0.33931859  0.03198120    -0.62600
O114        O  0.73904653  0.39111773  0.47285784    -0.71000
O115        O  0.71009512  0.42954667  0.47194595    -0.70600
O116        O  0.67654423  0.37809659  0.03102669    -0.61800
O117        O  0.71048253  0.43138931  0.03023463    -0.74300
O118        O  0.67624942  0.37603739  0.47384433    -0.73100
Cu119      Cu  0.72319576  0.36374069  0.00223088     1.04600
Cu120      Cu  0.69240100  0.40519917  0.00173241     1.04300
C121        C  0.68530141  0.34800828  0.46499501     0.93200
C122        C  0.73021146  0.42072242  0.03922362     0.92300
C123        C  0.68558444  0.35056790  0.04073261     0.84500
C124        C  0.72978161  0.41849079  0.46308531     0.90700
N125        N  0.26908383  0.30755885  0.16654216    -0.27400
N126        N  0.24924943  0.29277454  0.15897403    -0.35200
C127        C  0.23166022  0.30471286  0.17466042     0.01000
C128        C  0.24085816  0.32850936  0.19269390     0.07000
C129        C  0.26457739  0.32976983  0.18698921    -0.06100
H130        H  0.21350388  0.29709913  0.17271216     0.07700
H131        H  0.27766082  0.34529693  0.19721075     0.08900
Cu132      Cu  0.24687188  0.25842044  0.12690120     0.44200
Cu133      Cu  0.30155911  0.29554056  0.14976140     0.42000
Cu134      Cu  0.30220717  0.22820258  0.09879238     0.43900
N135        N  0.24945292  0.22593895  0.09364261    -0.34700
N136        N  0.26950588  0.21374262  0.08407541    -0.29000
C137        C  0.26496499  0.19221270  0.06320802    -0.05100
C138        C  0.24099022  0.19135376  0.05929387     0.07100
C139        C  0.23167940  0.21312360  0.07879844     0.00900
H140        H  0.27816258  0.17866310  0.05146880     0.08600
H141        H  0.21334729  0.21873979  0.08231558     0.07600
N142        N  0.33242352  0.24963803  0.11529688    -0.36200
N143        N  0.33217112  0.27517533  0.13322200    -0.28400
C144        C  0.35438270  0.28374683  0.13942532    -0.03600
C145        C  0.36940564  0.26235444  0.12491004     0.05000
C146        C  0.35480178  0.24103039  0.10984741     0.03100
H147        H  0.35919959  0.30353287  0.15397725     0.08200
H148        H  0.36002401  0.22095161  0.09571769     0.07000
N149        N  0.64478520  0.31125550  0.08841171    -0.27400
N150        N  0.66469896  0.29709544  0.09648921    -0.35200
C151        C  0.68229380  0.30876745  0.08073828     0.01000
C152        C  0.67302776  0.33171997  0.06211001     0.07000
C153        C  0.64926407  0.33286207  0.06756125    -0.06100
H154        H  0.70045686  0.30120601  0.08281646     0.07700
H155        H  0.63610482  0.34751949  0.05667352     0.08900
Cu156      Cu  0.66723566  0.26259952  0.12836957     0.44200
Cu157      Cu  0.61216960  0.29815242  0.10425086     0.42000
Cu158      Cu  0.61214007  0.22548424  0.15020683     0.43900
N159        N  0.66435116  0.22713644  0.15955438    -0.34700
N160        N  0.64437701  0.21240141  0.16674159    -0.29000
C161        C  0.64852540  0.18991558  0.18707582    -0.05100
C162        C  0.67215482  0.19099548  0.19310767     0.07100
C163        C  0.68168410  0.21488504  0.17536945     0.00900
H164        H  0.63523575  0.17454776  0.19713356     0.08600
H165        H  0.69986248  0.22257018  0.17385589     0.07600
N166        N  0.58177632  0.24770265  0.13494922    -0.36200
N167        N  0.58174240  0.27563707  0.11939049    -0.28400
C168        C  0.55942669  0.28500060  0.11447583    -0.03600
C169        C  0.54474953  0.26150247  0.12721663     0.05000
C170        C  0.55950795  0.23814411  0.13991953     0.03100
H171        H  0.55426554  0.30686066  0.10207928     0.08200
H172        H  0.55443894  0.21628118  0.15237643     0.07000
O173        O  0.67511763  0.14334281  0.22311696    -0.73000
O174        O  0.70839748  0.08863957  0.28066087    -0.74000
O175        O  0.67485954  0.14285598  0.28046992    -0.62600
O176        O  0.70864129  0.08923587  0.22236673    -0.71000
O177        O  0.73769571  0.12742490  0.22323368    -0.70600
O178        O  0.70395449  0.18098133  0.28131837    -0.61800
O179        O  0.73744317  0.12687325  0.28054595    -0.74300
O180        O  0.70416950  0.18156815  0.22304588    -0.73100
Cu181      Cu  0.69076854  0.11461694  0.25164488     1.04600
Cu182      Cu  0.72179449  0.15562683  0.25204726     1.04300
C183        C  0.68441457  0.17106052  0.21405739     0.93200
C184        C  0.72818065  0.09911409  0.28958594     0.92300
C185        C  0.68410262  0.17035390  0.29000541     0.84500
C186        C  0.72850167  0.09988518  0.21371289     0.90700
O187        O  0.23727596  0.14334426  0.02979412    -0.73000
O188        O  0.20344014  0.08905864  0.47245950    -0.74000
O189        O  0.23721361  0.14307261  0.47268217    -0.62600
O190        O  0.20345243  0.08957233  0.03077395    -0.71000
O191        O  0.17453765  0.12806581  0.03028546    -0.70600
O192        O  0.20812340  0.18129007  0.47202198    -0.61800
O193        O  0.17442634  0.12738870  0.47291005    -0.74300
O194        O  0.20835094  0.18183724  0.03022282    -0.73100
Cu195      Cu  0.22129975  0.11480839  0.00142424     1.04600
Cu196      Cu  0.19036612  0.15603916  0.00134736     1.04300
C197        C  0.22822653  0.17125122  0.03885229     0.93200
C198        C  0.18362317  0.09965060  0.46368241     0.92300
C199        C  0.22804166  0.17079364  0.46343260     0.84500
C200        C  0.18372394  0.10045386  0.03969870     0.90700
N201        N  0.14364946  0.06108030  0.08819700    -0.27400
N202        N  0.16349174  0.04586485  0.09522389    -0.35200
C203        C  0.18080354  0.05731596  0.07893736     0.01000
C204        C  0.17139877  0.08113592  0.06104009     0.07000
C205        C  0.14784828  0.08301264  0.06748410    -0.06100
H206        H  0.19890098  0.04912136  0.08021779     0.07700
H207        H  0.13464511  0.09858168  0.05749258     0.08900
Cu208      Cu  0.16612631  0.51053867  0.12672115     0.44200
Cu209      Cu  0.11154678  0.04923105  0.10556805     0.42000
Cu210      Cu  0.11143447  0.47460023  0.15041299     0.43900
N211        N  0.16373635  0.47525034  0.15828242    -0.34700
N212        N  0.14379566  0.46096411  0.16612724    -0.29000
C213        C  0.14810110  0.43880834  0.18663768    -0.05100
C214        C  0.17182415  0.43960309  0.19214617     0.07100
C215        C  0.18123888  0.46299979  0.17387913     0.00900
H216        H  0.13484861  0.42396169  0.19723590     0.08600
H217        H  0.19943767  0.47042970  0.17193241     0.07600
N218        N  0.08135071  0.49837754  0.13610202    -0.36200
N219        N  0.08142856  0.02687764  0.12118416    -0.28400
C220        C  0.05919989  0.03684237  0.11669125    -0.03600
C221        C  0.04447891  0.01318910  0.12905156     0.05000
C222        C  0.05906109  0.48907913  0.14108171     0.03100
H223        H  0.05413566  0.05907116  0.10464030     0.08200
H224        H  0.05387258  0.46674044  0.15293659     0.07000
N225        N  0.76937206  0.05911785  0.16684683    -0.27400
N226        N  0.74948758  0.04512310  0.15855345    -0.35200
C227        C  0.73182350  0.05724785  0.17405529     0.01000
C228        C  0.74107057  0.08029117  0.19269257     0.07000
C229        C  0.76486518  0.08096319  0.18752231    -0.06100
H230        H  0.71361467  0.05009309  0.17172018     0.06500
H231        H  0.77801758  0.09564696  0.19837469     0.08900
Cu232      Cu  0.74733291  0.01072757  0.12628259     0.44200
Cu233      Cu  0.80193913  0.04620529  0.15114862     0.42000
Cu234      Cu  0.80268563  0.47645203  0.10205729     0.43900
N235        N  0.75032925  0.47624215  0.09415727    -0.34700
N236        N  0.77043274  0.46258581  0.08610007    -0.29000
C237        C  0.76632834  0.44049596  0.06547351    -0.05100
C238        C  0.74257208  0.44072580  0.06009390     0.07100
C239        C  0.73294288  0.46368651  0.07856227     0.00900
H240        H  0.77971197  0.42595970  0.05480579     0.08600
H241        H  0.71463885  0.47046098  0.08075086     0.07600
N242        N  0.83266516  0.99884735  0.11797783    -0.36200
N243        N  0.83239618  0.02509566  0.13523720    -0.28400
C244        C  0.85456921  0.03430594  0.14090532    -0.03600
C245        C  0.86956700  0.01267155  0.12662673     0.05000
C246        C  0.85501374  0.99048790  0.11233296     0.03100
H247        H  0.85935488  0.05482264  0.15482050     0.08200
H248        H  0.86021499  0.47006579  0.09849767     0.07000
C249        C  0.96917820  0.07444215  0.13922736    -0.17900
C250        C  0.94467092  0.07426061  0.13922171    -0.20100
C251        C  0.93233619  0.04377365  0.13334417     0.20600
C252        C  0.94481027  0.01311660  0.12751959    -0.03000
C253        C  0.96952105  0.01315942  0.12795417    -0.06000
C254        C  0.98175155  0.04406064  0.13361705     0.20900
C255        C  0.98197310  0.48228718  0.12273160     0.19000
C256        C  0.96965685  0.45187599  0.11664836    -0.17500
C257        C  0.94517545  0.45196913  0.11580597    -0.19800
C258        C  0.93260702  0.48239382  0.12129205     0.20500
C259        C  0.90805851  0.48257906  0.12077771    -0.32800
C260        C  0.89549019  0.01291853  0.12682656     0.01200
C261        C  0.90776512  0.04340079  0.13316294    -0.24100
C262        C  0.00631871  0.04397535  0.13357633    -0.28700
C263        C  0.01871903  0.01319256  0.12881702     0.06900
C264        C  0.00650974  0.48240891  0.12363721    -0.27300
H265        H  0.97830813  0.09834312  0.14370709     0.11600
H266        H  0.93535075  0.09802726  0.14371682     0.12700
H267        H  0.97897154  0.42801177  0.11247758     0.11800
H268        H  0.93605063  0.42815982  0.11099656     0.11100
H269        H  0.89874268  0.45887196  0.11615581     0.16400
H270        H  0.89821595  0.06699874  0.13757184     0.12400
H271        H  0.01583203  0.06767459  0.13773601     0.15200
H272        H  0.01616720  0.45873669  0.11974125     0.15000
C273        C  0.44492281  0.32313331  0.13725890    -0.17900
C274        C  0.46943993  0.32315235  0.13708689    -0.20100
C275        C  0.48191692  0.29254485  0.13195407     0.20600
C276        C  0.46956003  0.26154476  0.12705456    -0.03000
C277        C  0.44480517  0.26167291  0.12671075    -0.06000
C278        C  0.43244315  0.29259746  0.13196887     0.20900
C279        C  0.43245055  0.23091144  0.12101230     0.19000
C280        C  0.44493602  0.20020535  0.11620312    -0.17500
C281        C  0.46944973  0.19993416  0.11705148    -0.19800
C282        C  0.48192691  0.23045145  0.12239942     0.20500
C283        C  0.50652725  0.23050413  0.12303938    -0.32800
C284        C  0.51888601  0.26144421  0.12730811     0.01200
C285        C  0.50650960  0.29238403  0.13158575    -0.24100
C286        C  0.40784255  0.29249783  0.13168479    -0.28700
C287        C  0.39539156  0.26207322  0.12561645     0.06900
C288        C  0.40785344  0.23140180  0.12021928    -0.27300
H289        H  0.43570402  0.34710935  0.14132840     0.11600
H290        H  0.47865669  0.34713411  0.14101424     0.12700
H291        H  0.43572618  0.17633769  0.11185750     0.11800
H292        H  0.47866544  0.17586427  0.11335289     0.11100
H293        H  0.51610559  0.20666053  0.11958130     0.16400
H294        H  0.51606990  0.31619889  0.13510203     0.12400
H295        H  0.39839385  0.31631070  0.13564492     0.15200
H296        H  0.39840216  0.20774764  0.11582424     0.15000
C297        C  0.46850298  0.23668348  0.33289719    -0.17900
C298        C  0.44401025  0.23799897  0.33256115    -0.20100
C299        C  0.43158362  0.25009557  0.35537218     0.20600
C300        C  0.44394366  0.26084849  0.37881440    -0.03000
C301        C  0.46865927  0.26011570  0.37895534    -0.06000
C302        C  0.48098012  0.24784528  0.35592413     0.20900
C303        C  0.48101578  0.27171910  0.40211426     0.19000
C304        C  0.46858452  0.28349290  0.42503613    -0.17500
C305        C  0.44408301  0.28361707  0.42509666    -0.19800
C306        C  0.43161608  0.27236862  0.40211107     0.20500
C307        C  0.40705126  0.27247056  0.40197008    -0.32800
C308        C  0.39475168  0.26242191  0.37852307     0.01200
C309        C  0.40702925  0.25157071  0.35521642    -0.24100
C310        C  0.50555068  0.24714448  0.35625237    -0.28700
C311        C  0.51802011  0.25901979  0.37915447     0.06900
C312        C  0.50557719  0.27131049  0.40198578    -0.27300
H313        H  0.47769813  0.22716641  0.31505763     0.11600
H314        H  0.43478218  0.22947719  0.31447537     0.12700
H315        H  0.47781808  0.29246363  0.44298325     0.11800
H316        H  0.43488148  0.29265039  0.44308810     0.11100
H317        H  0.39745738  0.28095798  0.41987285     0.16400
H318        H  0.39741281  0.24357780  0.33723542     0.12400
H319        H  0.51491816  0.23792478  0.33844979     0.15200
H320        H  0.51495250  0.28011943  0.41986953     0.15000
C321        C  0.96885292  0.44862112  0.37182275    -0.17900
C322        C  0.94435712  0.44826137  0.37240597    -0.20100
C323        C  0.93170792  0.47932347  0.37401283     0.20600
C324        C  0.94384929  0.01109311  0.37509440    -0.03000
C325        C  0.96856824  0.01141543  0.37502338    -0.06000
C326        C  0.98110675  0.48002453  0.37316885     0.20900
C327        C  0.98071575  0.04312303  0.37681537     0.19000
C328        C  0.96805592  0.07420068  0.37824363    -0.17500
C329        C  0.94355345  0.07392219  0.37780320    -0.19800
C330        C  0.93130123  0.04253826  0.37624749     0.20500
C331        C  0.90673925  0.04201428  0.37587635    -0.32800
C332        C  0.89459949  0.01044947  0.37520932     0.01200
C333        C  0.90714715  0.47920773  0.37449689    -0.24100
C334        C  0.00566435  0.48058902  0.37277673    -0.28700
C335        C  0.01786028  0.01203007  0.37490331     0.06900
C336        C  0.00529043  0.04317608  0.37709014    -0.27300
H337        H  0.97823096  0.42429340  0.37045054     0.11600
H338        H  0.93528983  0.42366381  0.37148221     0.12700
H339        H  0.97711930  0.09876646  0.37957550     0.11800
H340        H  0.93417239  0.09827382  0.37879036     0.11100
H341        H  0.89703175  0.06612152  0.37666331     0.16400
H342        H  0.89775446  0.45484408  0.37376416     0.12400
H343        H  0.01530929  0.45647788  0.37135519     0.15200
H344        H  0.01465210  0.06750578  0.37848922     0.15000
N345        N  0.14323598  0.05917073  0.91626256    -0.27400
N346        N  0.16316112  0.04464546  0.90855317    -0.35200
C347        C  0.18059695  0.05644701  0.92445289     0.01000
C348        C  0.17118869  0.07983765  0.94274766     0.07000
C349        C  0.14751546  0.08103512  0.93697713    -0.06100
H350        H  0.19879445  0.04897060  0.92251911     0.07700
H351        H  0.13429975  0.09623631  0.94734989     0.08900
Cu352      Cu  0.16588521  0.51029303  0.87631674     0.44200
Cu353      Cu  0.11089541  0.04712543  0.89959739     0.42000
Cu354      Cu  0.11105511  0.47633029  0.85142657     0.43900
N355        N  0.16348400  0.47597863  0.84403098    -0.34700
N356        N  0.14346996  0.46240888  0.83573395    -0.29000
C357        C  0.14779682  0.44032774  0.81514848    -0.05100
C358        C  0.17161960  0.44040572  0.81004971     0.07100
C359        C  0.18105451  0.46336782  0.82862578     0.00900
H360        H  0.13451853  0.42586601  0.80431990     0.08600
H361        H  0.19933371  0.47008586  0.83102232     0.07600
N362        N  0.08077827  0.49870103  0.86680719    -0.36200
N363        N  0.08069904  0.02563915  0.88341020    -0.28400
C364        C  0.05839611  0.03479111  0.88862045    -0.03600
C365        C  0.04373435  0.01227378  0.87485315     0.05000
C366        C  0.05854236  0.48969975  0.86128530     0.03100
H367        H  0.05325999  0.05575371  0.90197792     0.08200
H368        H  0.05355624  0.46858752  0.84802514     0.07000
N369        N  0.76970176  0.45917300  0.91516539    -0.27400
N370        N  0.74956109  0.47260371  0.90709281    -0.35200
C371        C  0.73222395  0.46016002  0.92287566     0.01000
C372        C  0.74194476  0.43751009  0.94148124     0.07000
C373        C  0.76568508  0.43733654  0.93598822    -0.06100
H374        H  0.71393222  0.46707491  0.92091141     0.07700
H375        H  0.77914284  0.42327909  0.94687361     0.08900
Cu376      Cu  0.74656997  0.00732028  0.87518826     0.44200
Cu377      Cu  0.80191857  0.47350862  0.89937555     0.42000
Cu378      Cu  0.80126432  0.04445477  0.85167282     0.43900
N379        N  0.74888773  0.04279503  0.84373040    -0.34700
N380        N  0.76876715  0.05735538  0.83596469    -0.29000
C381        C  0.76433906  0.07985441  0.81573763    -0.05100
C382        C  0.74061104  0.07903853  0.81033016     0.07100
C383        C  0.73130641  0.05523305  0.82834096     0.00900
H384        H  0.77750907  0.09508591  0.80533773     0.08600
H385        H  0.71312070  0.04774943  0.83032555     0.07600
N386        N  0.83171551  0.02309382  0.86722348    -0.36200
N387        N  0.83194483  0.99598970  0.88365293    -0.28400
C388        C  0.85427824  0.98715561  0.88884686    -0.03600
C389        C  0.86878347  0.01009861  0.87529907     0.05000
C390        C  0.85390438  0.03260765  0.86185882     0.03100
H391        H  0.85954586  0.46601563  0.90194655     0.08200
H392        H  0.85882515  0.05387766  0.84870333     0.07000
O393        O  0.23740582  0.37632095  0.72251618    -0.73000
O394        O  0.20398767  0.43065484  0.78042013    -0.74000
O395        O  0.23747566  0.37613521  0.77970343    -0.62600
O396        O  0.20395269  0.43057640  0.72208331    -0.71000
O397        O  0.17490983  0.39234916  0.72255354    -0.70600
O398        O  0.20821703  0.33826900  0.78045951    -0.61800
O399        O  0.17476699  0.39274223  0.77992060    -0.74300
O400        O  0.20840164  0.33803343  0.72226515    -0.73100
Cu401      Cu  0.22167347  0.40484550  0.75119609     1.04600
Cu402      Cu  0.19057450  0.36396583  0.75131775     1.04300
C403        C  0.22824680  0.34853683  0.71342579     0.93200
C404        C  0.18408201  0.42033936  0.78918856     0.92300
C405        C  0.22821030  0.34846708  0.78892946     0.84500
C406        C  0.18418093  0.41994896  0.71322340     0.90700
N407        N  0.26938860  0.30455936  0.83341940    -0.27400
N408        N  0.24934535  0.29238967  0.84298001    -0.35200
C409        C  0.23156506  0.30584722  0.82846731     0.01000
C410        C  0.24090279  0.32800561  0.80923116     0.07000
C411        C  0.26487859  0.32667668  0.81293270    -0.06100
H412        H  0.21322147  0.30040708  0.83202723     0.07700
H413        H  0.27809667  0.34034592  0.80133240     0.08900
Cu414      Cu  0.24697286  0.25952790  0.87612479     0.44200
Cu415      Cu  0.30197049  0.28997006  0.84810591     0.42000
Cu416      Cu  0.30183570  0.23313497  0.90678047     0.43900
N417        N  0.24924623  0.22677449  0.90934118    -0.34700
N418        N  0.26930117  0.21598562  0.91980386    -0.29000
C419        C  0.26478500  0.19380830  0.94026164    -0.05100
C420        C  0.24076892  0.19107645  0.94303690     0.07100
C421        C  0.23142011  0.21240393  0.92326068     0.00900
H422        H  0.27799831  0.18135119  0.95265286     0.08600
H423        H  0.21305917  0.21687387  0.91907932     0.07600
N424        N  0.33204283  0.25282899  0.88920517    -0.36200
N425        N  0.33214874  0.27222644  0.86698120    -0.28400
C426        C  0.35446486  0.27854876  0.85967176    -0.03600
C427        C  0.36900565  0.26288579  0.87850227     0.05000
C428        C  0.35426595  0.24695421  0.89700429     0.03100
H429        H  0.35970024  0.29371798  0.84214113     0.08200
H430        H  0.35931839  0.23141936  0.91439358     0.07000
N431        N  0.64359749  0.21164277  0.83704523    -0.27400
N432        N  0.66367149  0.22475376  0.84560501    -0.35200
C433        C  0.68119798  0.21229108  0.83007978     0.01000
C434        C  0.67167172  0.18992342  0.81114036     0.07000
C435        C  0.64784376  0.18997924  0.81616487    -0.06100
H436        H  0.69950713  0.21874984  0.83260910     0.07700
H437        H  0.63451105  0.17595122  0.80507354     0.08900
Cu438      Cu  0.66632079  0.25839089  0.87827149     0.44200
Cu439      Cu  0.61123455  0.22556580  0.85280581     0.42000
Cu440      Cu  0.61137494  0.28984974  0.90623680     0.43900
N441        N  0.66403687  0.29198872  0.91101191    -0.34700
N442        N  0.64404009  0.30450307  0.92047019    -0.29000
C443        C  0.64860724  0.32662789  0.94091831    -0.05100
C444        C  0.67256677  0.32759738  0.94472900     0.07100
C445        C  0.68184610  0.30527844  0.92555336     0.00900
H446        H  0.63542784  0.34043855  0.95248876     0.08600
H447        H  0.70016784  0.29952322  0.92211715     0.07600
N448        N  0.58108693  0.26978225  0.88926138    -0.36200
N449        N  0.58103785  0.24633992  0.86965984    -0.28400
C450        C  0.55876217  0.23900398  0.86295404    -0.03600
C451        C  0.54399097  0.25864327  0.87924814     0.05000
C452        C  0.55884328  0.27784111  0.89569671     0.03100
H453        H  0.55378177  0.22041136  0.84753770     0.08200
H454        H  0.55394769  0.29663159  0.91102155     0.07000
O455        O  0.70516278  0.33752184  0.97370337    -0.73000
O456        O  0.73931430  0.39275157  0.53031853    -0.74000
O457        O  0.70528331  0.33931828  0.53198117    -0.62600
O458        O  0.73904642  0.39111779  0.97285779    -0.71000
O459        O  0.71009508  0.42954674  0.97194595    -0.70600
O460        O  0.67654433  0.37809642  0.53102667    -0.61800
O461        O  0.71048257  0.43138911  0.53023456    -0.74300
O462        O  0.67624927  0.37603754  0.97384426    -0.73100
Cu463      Cu  0.72319588  0.36374060  0.50223087     1.04600
Cu464      Cu  0.69240108  0.40519905  0.50173241     1.04300
C465        C  0.68530126  0.34800837  0.96499504     0.93200
C466        C  0.73021150  0.42072226  0.53922366     0.92300
C467        C  0.68558454  0.35056774  0.54073262     0.84500
C468        C  0.72978155  0.41849081  0.96308527     0.90700
N469        N  0.26908381  0.30755905  0.66654188    -0.27400
N470        N  0.24924945  0.29277465  0.65897396    -0.35200
C471        C  0.23166023  0.30471303  0.67466042     0.01000
C472        C  0.24085816  0.32850952  0.69269378     0.07000
C473        C  0.26457741  0.32977022  0.68698899    -0.06100
H474        H  0.21350405  0.29709924  0.67271248     0.07700
H475        H  0.27766018  0.34529671  0.69721011     0.08900
Cu476      Cu  0.24687184  0.25842029  0.62690128     0.44200
Cu477      Cu  0.30155904  0.29554087  0.64976105     0.42000
Cu478      Cu  0.30220714  0.22820192  0.59879287     0.43900
N479        N  0.24945314  0.22593870  0.59364275    -0.34700
N480        N  0.26950592  0.21374219  0.58407577    -0.29000
C481        C  0.26496505  0.19221231  0.56320826    -0.05100
C482        C  0.24099042  0.19135357  0.55929388     0.07100
C483        C  0.23167918  0.21312357  0.57879849     0.00900
H484        H  0.27816258  0.17866247  0.55146927     0.08600
H485        H  0.21334978  0.21873940  0.58231476     0.07600
N486        N  0.33242342  0.24963773  0.61529730    -0.36200
N487        N  0.33217099  0.27517530  0.63322187    -0.28400
C488        C  0.35438262  0.28374715  0.63942516    -0.03600
C489        C  0.36940557  0.26235451  0.62491024     0.05000
C490        C  0.35480187  0.24102970  0.60984773     0.03100
H491        H  0.35919931  0.30353288  0.65397643     0.08200
H492        H  0.36002361  0.22095303  0.59571989     0.07000
N493        N  0.64478530  0.31125504  0.58841156    -0.27400
N494        N  0.66469910  0.29709501  0.59648908    -0.35200
C495        C  0.68229375  0.30876714  0.58073817     0.01000
C496        C  0.67302790  0.33171953  0.56210988     0.07000
C497        C  0.64926408  0.33286167  0.56756100    -0.06100
H498        H  0.70045777  0.30120501  0.58281635     0.07700
H499        H  0.63610536  0.34751857  0.55667380     0.08900
Cu500      Cu  0.66723577  0.26259925  0.62836951     0.44200
Cu501      Cu  0.61216958  0.29815202  0.60425050     0.42000
Cu502      Cu  0.61214002  0.22548458  0.65020729     0.43900
N503        N  0.66435140  0.22713656  0.65955460    -0.34700
N504        N  0.64437693  0.21240158  0.66674208    -0.29000
C505        C  0.64852564  0.18991627  0.68707598    -0.05100
C506        C  0.67215494  0.19099568  0.69310794     0.07100
C507        C  0.68168384  0.21488491  0.67536948     0.00900
H508        H  0.63523401  0.17454650  0.69713528     0.08600
H509        H  0.69986533  0.22257128  0.67385540     0.07600
N510        N  0.58177632  0.24770282  0.63494940    -0.36200
N511        N  0.58174241  0.27563694  0.61939044    -0.28400
C512        C  0.55942666  0.28500047  0.61447553    -0.03600
C513        C  0.54474948  0.26150257  0.62721670     0.05000
C514        C  0.55950787  0.23814438  0.63991994     0.03100
H515        H  0.55426570  0.30685972  0.60207927     0.08200
H516        H  0.55443901  0.21628220  0.65237655     0.07000
O517        O  0.67511774  0.14334287  0.72311714    -0.73000
O518        O  0.70839758  0.08863957  0.78066081    -0.74000
O519        O  0.67485969  0.14285597  0.78046998    -0.62600
O520        O  0.70864135  0.08923601  0.72236672    -0.71000
O521        O  0.73769574  0.12742490  0.72323370    -0.70600
O522        O  0.70395462  0.18098137  0.78131845    -0.61800
O523        O  0.73744327  0.12687320  0.78054597    -0.74300
O524        O  0.70416958  0.18156819  0.72304598    -0.73100
Cu525      Cu  0.69076860  0.11461698  0.75164491     1.04600
Cu526      Cu  0.72179455  0.15562683  0.75204732     1.04300
C527        C  0.68441464  0.17106060  0.71405756     0.93200
C528        C  0.72818079  0.09911402  0.78958592     0.92300
C529        C  0.68410275  0.17035390  0.79000548     0.84500
C530        C  0.72850170  0.09988523  0.71371285     0.90700
O531        O  0.23727599  0.14334420  0.52979401    -0.73000
O532        O  0.20344013  0.08905856  0.97245956    -0.74000
O533        O  0.23721357  0.14307254  0.97268224    -0.62600
O534        O  0.20345241  0.08957235  0.53077392    -0.71000
O535        O  0.17453773  0.12806580  0.53028530    -0.70600
O536        O  0.20812331  0.18129008  0.97202198    -0.61800
O537        O  0.17442631  0.12738860  0.97291014    -0.74300
O538        O  0.20835101  0.18183716  0.53022278    -0.73100
Cu539      Cu  0.22129977  0.11480846  0.50142418     1.04600
Cu540      Cu  0.19036618  0.15603919  0.50134733     1.04300
C541        C  0.22822656  0.17125114  0.53885226     0.93200
C542        C  0.18362315  0.09965048  0.96368248     0.92300
C543        C  0.22804162  0.17079362  0.96343269     0.84500
C544        C  0.18372402  0.10045386  0.53969868     0.90700
N545        N  0.14364931  0.06108050  0.58819686    -0.27400
N546        N  0.16349156  0.04586501  0.59522391    -0.35200
C547        C  0.18080369  0.05731600  0.57893742     0.01000
C548        C  0.17139848  0.08113618  0.56103998     0.07000
C549        C  0.14784841  0.08301247  0.56748427    -0.06100
H550        H  0.19889893  0.04912234  0.58021771     0.07700
H551        H  0.13464307  0.09858359  0.55749097     0.08900
Cu552      Cu  0.16612625  0.51053877  0.62672118     0.44200
Cu553      Cu  0.11154687  0.04923090  0.60556808     0.42000
Cu554      Cu  0.11143446  0.47460034  0.65041317     0.43900
N555        N  0.16373621  0.47525038  0.65828253    -0.34700
N556        N  0.14379560  0.46096409  0.66612735    -0.29000
C557        C  0.14810119  0.43880848  0.68663770    -0.05100
C558        C  0.17182403  0.43960308  0.69214638     0.07100
C559        C  0.18123904  0.46299989  0.67387924     0.00900
H560        H  0.13484799  0.42396081  0.69723640     0.08600
H561        H  0.19943617  0.47042948  0.67193291     0.07600
N562        N  0.08135074  0.49837755  0.63610216    -0.36200
N563        N  0.08142865  0.02687753  0.62118428    -0.28400
C564        C  0.05919987  0.03684253  0.61669121    -0.03600
C565        C  0.04447892  0.01318901  0.62905166     0.05000
C566        C  0.05906114  0.48907915  0.64108178     0.03100
H567        H  0.05413599  0.05906976  0.60464128     0.08200
H568        H  0.05387261  0.46674019  0.65293685     0.07000
N569        N  0.76937211  0.05911804  0.66684689    -0.27400
N570        N  0.74948765  0.04512320  0.65855353    -0.35200
C571        C  0.73182340  0.05724792  0.67405527     0.01000
C572        C  0.74107066  0.08029126  0.69269258     0.07000
C573        C  0.76486520  0.08096325  0.68752235    -0.06100
H574        H  0.71361524  0.05009335  0.67172027     0.06500
H575        H  0.77801803  0.09564739  0.69837525     0.08900
Cu576      Cu  0.74733290  0.01072766  0.62628265     0.44200
Cu577      Cu  0.80193917  0.04620536  0.65114867     0.42000
Cu578      Cu  0.80268569  0.47645211  0.60205713     0.43900
N579        N  0.75032926  0.47624231  0.59415729    -0.34700
N580        N  0.77043269  0.46258605  0.58610012    -0.29000
C581        C  0.76632850  0.44049587  0.56547337    -0.05100
C582        C  0.74257199  0.44072582  0.56009398     0.07100
C583        C  0.73294298  0.46368655  0.57856228     0.00900
H584        H  0.77971084  0.42596117  0.55480671     0.08600
H585        H  0.71463845  0.47046128  0.58075094     0.07600
N586        N  0.83266525  0.99884746  0.61797771    -0.36200
N587        N  0.83239626  0.02509583  0.63523722    -0.28400
C588        C  0.85456917  0.03430585  0.64090523    -0.03600
C589        C  0.86956701  0.01267158  0.62662671     0.05000
C590        C  0.85501373  0.99048805  0.61233294     0.03100
H591        H  0.85935498  0.05482376  0.65482127     0.08200
H592        H  0.86021538  0.47006476  0.59849652     0.07000
C593        C  0.96917822  0.07444189  0.63922772    -0.17900
C594        C  0.94467103  0.07426050  0.63922214    -0.20100
C595        C  0.93233632  0.04377349  0.63334434     0.20600
C596        C  0.94481039  0.01311654  0.62751961    -0.03000
C597        C  0.96952109  0.01315928  0.62795413    -0.06000
C598        C  0.98175156  0.04406047  0.63361734     0.20900
C599        C  0.98197305  0.48228718  0.62273134     0.19000
C600        C  0.96965676  0.45187604  0.61664793    -0.17500
C601        C  0.94517544  0.45196931  0.61580557    -0.19800
C602        C  0.93260705  0.48239383  0.62129190     0.20500
C603        C  0.90805852  0.48257909  0.62077758    -0.32800
C604        C  0.89549023  0.01291842  0.62682653     0.01200
C605        C  0.90776499  0.04340096  0.63316319    -0.24100
C606        C  0.00631879  0.04397550  0.63357656    -0.28700
C607        C  0.01871898  0.01319254  0.62881700     0.06900
C608        C  0.00650984  0.48240864  0.62363698    -0.27300
H609        H  0.97830864  0.09834387  0.64370806     0.11600
H610        H  0.93535064  0.09802741  0.64371772     0.12700
H611        H  0.97897165  0.42801110  0.61247655     0.11800
H612        H  0.93605026  0.42815962  0.61099599     0.11100
H613        H  0.89874276  0.45887197  0.61615560     0.16400
H614        H  0.89821685  0.06699623  0.63757158     0.12400
H615        H  0.01583137  0.06767308  0.63773615     0.15200
H616        H  0.01616627  0.45873877  0.61974129     0.15000
C617        C  0.44492275  0.32313418  0.63725571    -0.17900
C618        C  0.46943984  0.32315338  0.63708369    -0.20100
C619        C  0.48191690  0.29254553  0.63195240     0.20600
C620        C  0.46955998  0.26154496  0.62705450    -0.03000
C621        C  0.44480509  0.26167308  0.62671069    -0.06000
C622        C  0.43244299  0.29259816  0.63196730     0.20900
C623        C  0.43245044  0.23091113  0.62101377     0.19000
C624        C  0.44493597  0.20020459  0.61620617    -0.17500
C625        C  0.46944965  0.19993355  0.61705457    -0.19800
C626        C  0.48192685  0.23045124  0.62240099     0.20500
C627        C  0.50652718  0.23050396  0.62304096    -0.32800
C628        C  0.51888597  0.26144454  0.62730819     0.01200
C629        C  0.50650945  0.29238442  0.63158418    -0.24100
C630        C  0.40784259  0.29249811  0.63168328    -0.28700
C631        C  0.39539144  0.26207338  0.62561654     0.06900
C632        C  0.40785340  0.23140158  0.62022080    -0.27300
H633        H  0.43570394  0.34711095  0.64132384     0.11600
H634        H  0.47865625  0.34713484  0.64100972     0.12700
H635        H  0.43572610  0.17633646  0.61186210     0.11800
H636        H  0.47866555  0.17586280  0.61335724     0.11100
H637        H  0.51610542  0.20666021  0.61958450     0.16400
H638        H  0.51607060  0.31620177  0.63509957     0.12400
H639        H  0.39839280  0.31631389  0.63564292     0.15200
H640        H  0.39840169  0.20774612  0.61582671     0.15000
C641        C  0.46850290  0.23668345  0.83289710    -0.17900
C642        C  0.44401012  0.23799902  0.83256127    -0.20100
C643        C  0.43158352  0.25009559  0.85537220     0.20600
C644        C  0.44394359  0.26084843  0.87881444    -0.03000
C645        C  0.46865925  0.26011578  0.87895527    -0.06000
C646        C  0.48098004  0.24784525  0.85592413     0.20900
C647        C  0.48101570  0.27171900  0.90211406     0.19000
C648        C  0.46858469  0.28349305  0.92503624    -0.17500
C649        C  0.44408301  0.28361712  0.92509664    -0.19800
C650        C  0.43161612  0.27236863  0.90211112     0.20500
C651        C  0.40705124  0.27247069  0.90197031    -0.32800
C652        C  0.39475171  0.26242207  0.87852314     0.01200
C653        C  0.40702921  0.25157080  0.85521660    -0.24100
C654        C  0.50555065  0.24714453  0.85625224    -0.28700
C655        C  0.51802008  0.25901987  0.87915423     0.06900
C656        C  0.50557728  0.27131065  0.90198576    -0.27300
H657        H  0.47769766  0.22716711  0.81505809     0.11600
H658        H  0.43478192  0.22947713  0.81447519     0.12700
H659        H  0.47781740  0.29246314  0.94298146     0.11800
H660        H  0.43488171  0.29265049  0.94308819     0.11100
H661        H  0.39745785  0.28095782  0.91987206     0.16400
H662        H  0.39741245  0.24357779  0.83723514     0.12400
H663        H  0.51491811  0.23792495  0.83844957     0.15200
H664        H  0.51495200  0.28011917  0.91986833     0.15000
C665        C  0.96885281  0.44862124  0.87182252    -0.17900
C666        C  0.94435716  0.44826137  0.87240584    -0.20100
C667        C  0.93170800  0.47932357  0.87401276     0.20600
C668        C  0.94384933  0.01109313  0.87509416    -0.03000
C669        C  0.96856823  0.01141547  0.87502309    -0.06000
C670        C  0.98110682  0.48002442  0.87316856     0.20900
C671        C  0.98071576  0.04312310  0.87681500     0.19000
C672        C  0.96805593  0.07420075  0.87824332    -0.17500
C673        C  0.94355350  0.07392219  0.87780299    -0.19800
C674        C  0.93130126  0.04253839  0.87624741     0.20500
C675        C  0.90673930  0.04201438  0.87587640    -0.32800
C676        C  0.89459958  0.01044988  0.87520937     0.01200
C677        C  0.90714708  0.47920760  0.87449696    -0.24100
C678        C  0.00566430  0.48058918  0.87277639    -0.28700
C679        C  0.01786028  0.01203022  0.87490288     0.06900
C680        C  0.00529043  0.04317619  0.87708974    -0.27300
H681        H  0.97823164  0.42429186  0.87045058     0.11600
H682        H  0.93528933  0.42366294  0.87148196     0.12700
H683        H  0.97711932  0.09876659  0.87957510     0.11800
H684        H  0.93417237  0.09827392  0.87879031     0.11100
H685        H  0.89703162  0.06612230  0.87666342     0.16400
H686        H  0.89775537  0.45484657  0.87376415     0.12400
H687        H  0.01530969  0.45647673  0.87135459     0.15200
H688        H  0.01465212  0.06750598  0.87848905     0.15000
N689        N  0.14323607  0.55917069  0.41626251    -0.27400
N690        N  0.16316116  0.54464559  0.40855312    -0.35200
C691        C  0.18059704  0.55644723  0.42445280     0.01000
C692        C  0.17118877  0.57983772  0.44274758     0.07000
C693        C  0.14751534  0.58103536  0.43697727    -0.06100
H694        H  0.19879442  0.54897098  0.42251897     0.07700
H695        H  0.13430076  0.59623518  0.44734915     0.08900
Cu696      Cu  0.16588528  0.01029327  0.37631671     0.44200
Cu697      Cu  0.11089541  0.54712534  0.39959751     0.42000
Cu698      Cu  0.11105505  0.97633039  0.35142647     0.43900
N699        N  0.16348400  0.97597883  0.34403096    -0.34700
N700        N  0.14346984  0.96240893  0.33573379    -0.29000
C701        C  0.14779696  0.94032797  0.31514867    -0.05100
C702        C  0.17161955  0.94040580  0.31004973     0.07100
C703        C  0.18105430  0.96336813  0.32862574     0.00900
H704        H  0.13451730  0.92586464  0.30431894     0.08600
H705        H  0.19933432  0.97008647  0.33102252     0.07600
N706        N  0.08077831  0.99870108  0.36680741    -0.36200
N707        N  0.08069902  0.52563903  0.38341041    -0.28400
C708        C  0.05839614  0.53479082  0.38862070    -0.03600
C709        C  0.04373431  0.51227362  0.37485339     0.05000
C710        C  0.05854225  0.98969956  0.36128551     0.03100
H711        H  0.05325994  0.55575388  0.40197858     0.08200
H712        H  0.05355649  0.96858910  0.34802660     0.07000
N713        N  0.76970177  0.95917310  0.41516527    -0.27400
N714        N  0.74956110  0.97260397  0.40709285    -0.35200
C715        C  0.73222404  0.96016018  0.42287576     0.01000
C716        C  0.74194481  0.93751013  0.44148122     0.07000
C717        C  0.76568516  0.93733651  0.43598811    -0.06100
H718        H  0.71393207  0.96707536  0.42091182     0.07700
H719        H  0.77914265  0.92327887  0.44687297     0.08900
Cu720      Cu  0.74656988  0.50732048  0.37518824     0.44200
Cu721      Cu  0.80191860  0.97350859  0.39937528     0.42000
Cu722      Cu  0.80126432  0.54445491  0.35167261     0.43900
N723        N  0.74888781  0.54279534  0.34373033    -0.34700
N724        N  0.76876718  0.55735567  0.33596452    -0.29000
C725        C  0.76433885  0.57985446  0.31573747    -0.05100
C726        C  0.74061097  0.57903879  0.31033010     0.07100
C727        C  0.73130618  0.55523330  0.32834102     0.00900
H728        H  0.77750930  0.59508659  0.30533684     0.08600
H729        H  0.71312181  0.54775010  0.33032559     0.07600
N730        N  0.83171549  0.52309394  0.36722322    -0.36200
N731        N  0.83194479  0.49598988  0.38365268    -0.28400
C732        C  0.85427819  0.48715560  0.38884672    -0.03600
C733        C  0.86878342  0.51009862  0.37529880     0.05000
C734        C  0.85390440  0.53260783  0.36185855     0.03100
H735        H  0.85954636  0.96601342  0.40194737     0.08200
H736        H  0.85882517  0.55387714  0.34870290     0.07000
O737        O  0.23740578  0.87632085  0.22251622    -0.73000
O738        O  0.20398768  0.93065506  0.28042005    -0.74000
O739        O  0.23747561  0.87613544  0.27970344    -0.62600
O740        O  0.20395276  0.93057645  0.22208317    -0.71000
O741        O  0.17490977  0.89234929  0.22255351    -0.70600
O742        O  0.20821694  0.83826915  0.28045952    -0.61800
O743        O  0.17476694  0.89274243  0.27992064    -0.74300
O744        O  0.20840154  0.83803342  0.22226512    -0.73100
Cu745      Cu  0.22167345  0.90484556  0.25119603     1.04600
Cu746      Cu  0.19057443  0.86396590  0.25131779     1.04300
C747        C  0.22824674  0.84853675  0.21342583     0.93200
C748        C  0.18408198  0.92033966  0.28918849     0.92300
C749        C  0.22821023  0.84846727  0.28892944     0.84500
C750        C  0.18418093  0.91994899  0.21322330     0.90700
N751        N  0.26938857  0.80455935  0.33341936    -0.27400
N752        N  0.24934539  0.79238985  0.34298009    -0.35200
C753        C  0.23156496  0.80584742  0.32846743     0.01000
C754        C  0.24090271  0.82800572  0.30923117     0.07000
C755        C  0.26487857  0.82667685  0.31293262    -0.06100
H756        H  0.21322185  0.80040756  0.33202735     0.07700
H757        H  0.27809617  0.84034534  0.30133243     0.08900
Cu758      Cu  0.24697276  0.75952802  0.37612481     0.44200
Cu759      Cu  0.30197050  0.78996999  0.34810566     0.42000
Cu760      Cu  0.30183572  0.73313488  0.40678023     0.43900
N761        N  0.24924625  0.72677458  0.40934118    -0.34700
N762        N  0.26930125  0.71598549  0.41980378    -0.29000
C763        C  0.26478498  0.69380839  0.44026148    -0.05100
C764        C  0.24076905  0.69107656  0.44303698     0.07100
C765        C  0.23142017  0.71240405  0.42326074     0.00900
H766        H  0.27799916  0.68135040  0.45265354     0.08600
H767        H  0.21305927  0.71687427  0.41907964     0.07600
N768        N  0.33204291  0.75282868  0.38920492    -0.36200
N769        N  0.33214877  0.77222635  0.36698095    -0.28400
C770        C  0.35446484  0.77854845  0.35967160    -0.03600
C771        C  0.36900566  0.76288564  0.37850208     0.05000
C772        C  0.35426596  0.74695411  0.39700391     0.03100
H773        H  0.35970039  0.79371833  0.34214059     0.08200
H774        H  0.35931872  0.73141846  0.41439406     0.07000
N775        N  0.64359762  0.71164301  0.33704537    -0.27400
N776        N  0.66367152  0.72475396  0.34560502    -0.35200
C777        C  0.68119788  0.71229114  0.33007983     0.01000
C778        C  0.67167189  0.68992368  0.31114040     0.07000
C779        C  0.64784355  0.68997911  0.31616463    -0.06100
H780        H  0.69950797  0.71875036  0.33260937     0.07700
H781        H  0.63451302  0.67595352  0.30507503     0.08900
Cu782      Cu  0.66632081  0.75839081  0.37827160     0.44200
Cu783      Cu  0.61123457  0.72556576  0.35280596     0.42000
Cu784      Cu  0.61137497  0.78984943  0.40623714     0.43900
N785        N  0.66403688  0.79198863  0.41101204    -0.34700
N786        N  0.64404007  0.80450303  0.42047040    -0.29000
C787        C  0.64860743  0.82662759  0.44091836    -0.05100
C788        C  0.67256681  0.82759736  0.44472905     0.07100
C789        C  0.68184614  0.80527847  0.42555333     0.00900
H790        H  0.63542710  0.84043930  0.45248968     0.08600
H791        H  0.70016789  0.79952335  0.42211697     0.07600
N792        N  0.58108688  0.76978228  0.38926181    -0.36200
N793        N  0.58103783  0.74633982  0.36966013    -0.28400
C794        C  0.55876216  0.73900396  0.36295428    -0.03600
C795        C  0.54399095  0.75864340  0.37924859     0.05000
C796        C  0.55884345  0.77784056  0.39569681     0.03100
H797        H  0.55378186  0.72041197  0.34753813     0.08200
H798        H  0.55394704  0.79663420  0.41102435     0.07000
O799        O  0.70516286  0.83752175  0.47370333    -0.73000
O800        O  0.73931424  0.89275163  0.03031847    -0.74000
O801        O  0.70528321  0.83931855  0.03198120    -0.62600
O802        O  0.73904652  0.89111774  0.47285781    -0.71000
O803        O  0.71009512  0.92954669  0.47194594    -0.70600
O804        O  0.67654430  0.87809661  0.03102671    -0.61800
O805        O  0.71048257  0.93138935  0.03023460    -0.74300
O806        O  0.67624940  0.87603740  0.47384433    -0.73100
Cu807      Cu  0.72319576  0.86374069  0.00223086     1.04600
Cu808      Cu  0.69240104  0.90519918  0.00173242     1.04300
C809        C  0.68530138  0.84800828  0.46499501     0.93200
C810        C  0.73021149  0.92072241  0.03922362     0.92300
C811        C  0.68558446  0.85056787  0.04073263     0.84500
C812        C  0.72978163  0.91849077  0.46308529     0.90700
N813        N  0.26908383  0.80755882  0.16654216    -0.27400
N814        N  0.24924943  0.79277452  0.15897409    -0.35200
C815        C  0.23166023  0.80471291  0.17466046     0.01000
C816        C  0.24085811  0.82850936  0.19269391     0.07000
C817        C  0.26457742  0.82976983  0.18698931    -0.06100
H818        H  0.21350363  0.79709916  0.17271213     0.07700
H819        H  0.27766041  0.84529650  0.19721048     0.08900
Cu820      Cu  0.24687186  0.75842046  0.12690122     0.44200
Cu821      Cu  0.30155909  0.79554055  0.14976140     0.42000
Cu822      Cu  0.30220717  0.72820260  0.09879239     0.43900
N823        N  0.24945311  0.72593894  0.09364262    -0.34700
N824        N  0.26950587  0.71374270  0.08407550    -0.29000
C825        C  0.26496509  0.69221256  0.06320791    -0.05100
C826        C  0.24099026  0.69135378  0.05929385     0.07100
C827        C  0.23167908  0.71312369  0.07879847     0.00900
H828        H  0.27816170  0.67866387  0.05146947     0.08600
H829        H  0.21334959  0.71873909  0.08231508     0.07600
N830        N  0.33242347  0.74963818  0.11529696    -0.36200
N831        N  0.33217111  0.77517542  0.13322215    -0.28400
C832        C  0.35438259  0.78374665  0.13942525    -0.03600
C833        C  0.36940561  0.76235464  0.12491025     0.05000
C834        C  0.35480180  0.74103039  0.10984737     0.03100
H835        H  0.35919991  0.80353419  0.15397870     0.08200
H836        H  0.36002372  0.72095294  0.09571870     0.07000
N837        N  0.64478519  0.81125555  0.08841174    -0.27400
N838        N  0.66469894  0.79709546  0.09648922    -0.35200
C839        C  0.68229384  0.80876749  0.08073834     0.01000
C840        C  0.67302771  0.83171997  0.06211002     0.07000
C841        C  0.64926407  0.83286204  0.06756129    -0.06100
H842        H  0.70045656  0.80120609  0.08281647     0.07700
H843        H  0.63610462  0.84751961  0.05667334     0.08900
Cu844      Cu  0.66723565  0.76259954  0.12836957     0.44200
Cu845      Cu  0.61216960  0.79815244  0.10425086     0.42000
Cu846      Cu  0.61214003  0.72548425  0.15020682     0.43900
N847        N  0.66435119  0.72713644  0.15955439    -0.34700
N848        N  0.64437696  0.71240140  0.16674161    -0.29000
C849        C  0.64852542  0.68991565  0.18707575    -0.05100
C850        C  0.67215486  0.69099550  0.19310763     0.07100
C851        C  0.68168406  0.71488503  0.17536942     0.00900
H852        H  0.63523549  0.67454750  0.19713368     0.08600
H853        H  0.69986301  0.72257062  0.17385587     0.07600
N854        N  0.58177635  0.74770272  0.13494911    -0.36200
N855        N  0.58174240  0.77563711  0.11939048    -0.28400
C856        C  0.55942665  0.78500064  0.11447581    -0.03600
C857        C  0.54474949  0.76150251  0.12721650     0.05000
C858        C  0.55950788  0.73814392  0.13991956     0.03100
H859        H  0.55426551  0.80686073  0.10207931     0.08200
H860        H  0.55443923  0.71628225  0.15237531     0.07000
O861        O  0.67511763  0.64334285  0.22311693    -0.73000
O862        O  0.70839747  0.58863960  0.28066088    -0.74000
O863        O  0.67485955  0.64285605  0.28046993    -0.62600
O864        O  0.70864127  0.58923589  0.22236673    -0.71000
O865        O  0.73769576  0.62742485  0.22323369    -0.70600
O866        O  0.70395458  0.68098129  0.28131833    -0.61800
O867        O  0.73744321  0.62687321  0.28054595    -0.74300
O868        O  0.70416956  0.68156811  0.22304585    -0.73100
Cu869      Cu  0.69076852  0.61461694  0.25164488     1.04600
Cu870      Cu  0.72179451  0.65562679  0.25204725     1.04300
C871        C  0.68441457  0.67106060  0.21405741     0.93200
C872        C  0.72818064  0.59911408  0.28958595     0.92300
C873        C  0.68410266  0.67035387  0.29000541     0.84500
C874        C  0.72850167  0.59988517  0.21371288     0.90700
O875        O  0.23727592  0.64334428  0.02979410    -0.73000
O876        O  0.20344018  0.58905866  0.47245947    -0.74000
O877        O  0.23721365  0.64307266  0.47268217    -0.62600
O878        O  0.20345240  0.58957233  0.03077395    -0.71000
O879        O  0.17453763  0.62806582  0.03028546    -0.70600
O880        O  0.20812338  0.68129005  0.47202197    -0.61800
O881        O  0.17442635  0.62738867  0.47291007    -0.74300
O882        O  0.20835090  0.68183727  0.03022279    -0.73100
Cu883      Cu  0.22129973  0.61480839  0.00142424     1.04600
Cu884      Cu  0.19036610  0.65603916  0.00134736     1.04300
C885        C  0.22822645  0.67125123  0.03885230     0.93200
C886        C  0.18362318  0.59965060  0.46368239     0.92300
C887        C  0.22804165  0.67079366  0.46343259     0.84500
C888        C  0.18372392  0.60045387  0.03969869     0.90700
N889        N  0.14364948  0.56108031  0.08819700    -0.27400
N890        N  0.16349176  0.54586485  0.09522388    -0.35200
C891        C  0.18080355  0.55731596  0.07893735     0.01000
C892        C  0.17139876  0.58113593  0.06104008     0.07000
C893        C  0.14784827  0.58301266  0.06748409    -0.06100
H894        H  0.19890098  0.54912137  0.08021776     0.07700
H895        H  0.13464510  0.59858168  0.05749259     0.08900
Cu896      Cu  0.16612633  0.01053867  0.12672114     0.44200
Cu897      Cu  0.11154684  0.54923102  0.10556808     0.42000
Cu898      Cu  0.11143453  0.97460026  0.15041297     0.43900
N899        N  0.16373638  0.97525034  0.15828242    -0.34700
N900        N  0.14379570  0.96096410  0.16612724    -0.29000
C901        C  0.14810114  0.93880831  0.18663765    -0.05100
C902        C  0.17182415  0.93960307  0.19214621     0.07100
C903        C  0.18123890  0.96299974  0.17387912     0.00900
H904        H  0.13484852  0.92396161  0.19723597     0.08600
H905        H  0.19943762  0.97042968  0.17193243     0.07600
N906        N  0.08135074  0.99837750  0.13610204    -0.36200
N907        N  0.08142858  0.52687767  0.12118413    -0.28400
C908        C  0.05919992  0.53684241  0.11669123    -0.03600
C909        C  0.04447891  0.51318914  0.12905155     0.05000
C910        C  0.05906112  0.98907910  0.14108172     0.03100
H911        H  0.05413570  0.55907118  0.10464029     0.08200
H912        H  0.05387262  0.96674041  0.15293661     0.07000
N913        N  0.76937203  0.55911785  0.16684683    -0.27400
N914        N  0.74948755  0.54512310  0.15855344    -0.35200
C915        C  0.73182347  0.55724785  0.17405528     0.01000
C916        C  0.74107055  0.58029116  0.19269257     0.07000
C917        C  0.76486515  0.58096319  0.18752231    -0.06100
H918        H  0.71361464  0.55009309  0.17172018     0.06500
H919        H  0.77801755  0.59564696  0.19837469     0.08900
Cu920      Cu  0.74733289  0.51072757  0.12628259     0.44200
Cu921      Cu  0.80193911  0.54620528  0.15114861     0.42000
Cu922      Cu  0.80268565  0.97645208  0.10205715     0.43900
N923        N  0.75032923  0.97624213  0.09415725    -0.34700
N924        N  0.77043273  0.96258581  0.08610004    -0.29000
C925        C  0.76632833  0.94049593  0.06547347    -0.05100
C926        C  0.74257204  0.94072579  0.06009391     0.07100
C927        C  0.73294291  0.96368648  0.07856225     0.00900
H928        H  0.77971176  0.92595993  0.05480591     0.08600
H929        H  0.71463853  0.97046108  0.08075089     0.07600
N930        N  0.83266515  0.49884732  0.11797785    -0.36200
N931        N  0.83239615  0.52509561  0.13523717    -0.28400
C932        C  0.85456919  0.53430602  0.14090536    -0.03600
C933        C  0.86956700  0.51267154  0.12662673     0.05000
C934        C  0.85501374  0.49048789  0.11233296     0.03100
H935        H  0.85935463  0.55482220  0.15482019     0.08200
H936        H  0.86021501  0.97006583  0.09849763     0.07000
C937        C  0.96917818  0.57444216  0.13922736    -0.17900
C938        C  0.94467090  0.57426061  0.13922171    -0.20100
C939        C  0.93233619  0.54377364  0.13334417     0.20600
C940        C  0.94481027  0.51311659  0.12751958    -0.03000
C941        C  0.96952104  0.51315941  0.12795417    -0.06000
C942        C  0.98175155  0.54406065  0.13361705     0.20900
C943        C  0.98197310  0.98228721  0.12273154     0.19000
C944        C  0.96965683  0.95187600  0.11664829    -0.17500
C945        C  0.94517538  0.95196917  0.11580590    -0.19800
C946        C  0.93260702  0.98239389  0.12129206     0.20500
C947        C  0.90805851  0.98257907  0.12077772    -0.32800
C948        C  0.89549020  0.51291853  0.12682656     0.01200
C949        C  0.90776512  0.54340078  0.13316293    -0.24100
C950        C  0.00631871  0.54397537  0.13357633    -0.28700
C951        C  0.01871903  0.51319259  0.12881702     0.06900
C952        C  0.00650975  0.98240887  0.12363718    -0.27300
H953        H  0.97830810  0.59834313  0.14370709     0.11600
H954        H  0.93535071  0.59802725  0.14371682     0.12700
H955        H  0.97897116  0.92801237  0.11247716     0.11800
H956        H  0.93605085  0.92816044  0.11099685     0.11100
H957        H  0.89874271  0.95887197  0.11615580     0.16400
H958        H  0.89821594  0.56699869  0.13757183     0.12400
H959        H  0.01583204  0.56767463  0.13773602     0.15200
H960        H  0.01616720  0.95873670  0.11974121     0.15000
C961        C  0.44492273  0.82313318  0.13725891    -0.17900
C962        C  0.46943995  0.82315242  0.13708693    -0.20100
C963        C  0.48191678  0.79254463  0.13195399     0.20600
C964        C  0.46955999  0.76154466  0.12705458    -0.03000
C965        C  0.44480511  0.76167284  0.12671067    -0.06000
C966        C  0.43244307  0.79259750  0.13196887     0.20900
C967        C  0.43245046  0.73091131  0.12101218     0.19000
C968        C  0.44493604  0.70020544  0.11620303    -0.17500
C969        C  0.46944966  0.69993408  0.11705138    -0.19800
C970        C  0.48192686  0.73045144  0.12239929     0.20500
C971        C  0.50652726  0.73050403  0.12303934    -0.32800
C972        C  0.51888594  0.76144413  0.12730807     0.01200
C973        C  0.50650956  0.79238413  0.13158577    -0.24100
C974        C  0.40784262  0.79249772  0.13168478    -0.28700
C975        C  0.39539149  0.76207338  0.12561644     0.06900
C976        C  0.40785344  0.73140196  0.12021926    -0.27300
H977        H  0.43570424  0.84710901  0.14132821     0.11600
H978        H  0.47865591  0.84713244  0.14101387     0.12700
H979        H  0.43572563  0.67633610  0.11185738     0.11800
H980        H  0.47866544  0.67586436  0.11335266     0.11100
H981        H  0.51610544  0.70666084  0.11958136     0.16400
H982        H  0.51606929  0.81619775  0.13510194     0.12400
H983        H  0.39839315  0.81631262  0.13564531     0.15200
H984        H  0.39840187  0.70774720  0.11582367     0.15000
C985        C  0.46850299  0.73668350  0.33289732    -0.17900
C986        C  0.44401033  0.73799894  0.33256113    -0.20100
C987        C  0.43158357  0.75009554  0.35537211     0.20600
C988        C  0.44394361  0.76084848  0.37881439    -0.03000
C989        C  0.46865924  0.76011569  0.37895538    -0.06000
C990        C  0.48098013  0.74784527  0.35592411     0.20900
C991        C  0.48101577  0.77171910  0.40211428     0.19000
C992        C  0.46858452  0.78349294  0.42503618    -0.17500
C993        C  0.44408298  0.78361707  0.42509667    -0.19800
C994        C  0.43161605  0.77236862  0.40211105     0.20500
C995        C  0.40705126  0.77247056  0.40197005    -0.32800
C996        C  0.39475166  0.76242191  0.37852300     0.01200
C997        C  0.40702927  0.75157073  0.35521646    -0.24100
C998        C  0.50555066  0.74714448  0.35625248    -0.28700
C999        C  0.51802010  0.75901979  0.37915446     0.06900
C1000       C  0.50557724  0.77131052  0.40198589    -0.27300
H1001       H  0.47769857  0.72716637  0.31505703     0.11600
H1002       H  0.43478229  0.72947713  0.31447529     0.12700
H1003       H  0.47781798  0.79246362  0.44298322     0.11800
H1004       H  0.43488148  0.79265036  0.44308803     0.11100
H1005       H  0.39745738  0.78095797  0.41987281     0.16400
H1006       H  0.39741229  0.74357744  0.33723459     0.12400
H1007       H  0.51491845  0.73792461  0.33844945     0.15200
H1008       H  0.51495236  0.78011931  0.41986922     0.15000
C1009       C  0.96885292  0.94862110  0.37182275    -0.17900
C1010       C  0.94435711  0.94826134  0.37240597    -0.20100
C1011       C  0.93170792  0.97932342  0.37401282     0.20600
C1012       C  0.94384930  0.51109316  0.37509440    -0.03000
C1013       C  0.96856825  0.51141551  0.37502338    -0.06000
C1014       C  0.98110670  0.98002460  0.37316885     0.20900
C1015       C  0.98071574  0.54312302  0.37681537     0.19000
C1016       C  0.96805588  0.57420088  0.37824363    -0.17500
C1017       C  0.94355357  0.57392194  0.37780319    -0.19800
C1018       C  0.93130120  0.54253847  0.37624750     0.20500
C1019       C  0.90673926  0.54201431  0.37587634    -0.32800
C1020       C  0.89459950  0.51044953  0.37520930     0.01200
C1021       C  0.90714716  0.97920770  0.37449689    -0.24100
C1022       C  0.00566437  0.98058893  0.37277672    -0.28700
C1023       C  0.01786026  0.51203000  0.37490327     0.06900
C1024       C  0.00529041  0.54317611  0.37709014    -0.27300
H1025       H  0.97823094  0.92429341  0.37045054     0.11600
H1026       H  0.93528982  0.92366378  0.37148221     0.12700
H1027       H  0.97711924  0.59876608  0.37957548     0.11800
H1028       H  0.93417149  0.59827629  0.37879043     0.11100
H1029       H  0.89703168  0.56612170  0.37666331     0.16400
H1030       H  0.89775448  0.95484402  0.37376416     0.12400
H1031       H  0.01530878  0.95647884  0.37135526     0.15200
H1032       H  0.01465205  0.56750560  0.37848921     0.15000
N1033       N  0.14323604  0.55917065  0.91626250    -0.27400
N1034       N  0.16316111  0.54464544  0.90855315    -0.35200
C1035       C  0.18059699  0.55644696  0.92445286     0.01000
C1036       C  0.17118880  0.57983757  0.94274759     0.07000
C1037       C  0.14751535  0.58103532  0.93697726    -0.06100
H1038       H  0.19879454  0.54897048  0.92251906     0.07700
H1039       H  0.13430093  0.59623520  0.94734908     0.08900
Cu1040     Cu  0.16588523  0.01029305  0.87631675     0.44200
Cu1041     Cu  0.11089540  0.54712544  0.89959740     0.42000
Cu1042     Cu  0.11105509  0.97633027  0.85142655     0.43900
N1043       N  0.16348381  0.97597864  0.84403100    -0.34700
N1044       N  0.14346990  0.96240893  0.83573391    -0.29000
C1045       C  0.14779678  0.94032768  0.81514844    -0.05100
C1046       C  0.17161947  0.94040564  0.81004966     0.07100
C1047       C  0.18105462  0.96336793  0.82862576     0.00900
H1048       H  0.13451848  0.92586585  0.80431987     0.08600
H1049       H  0.19933188  0.97008522  0.83102205     0.07600
N1050       N  0.08077833  0.99870112  0.86680725    -0.36200
N1051       N  0.08069898  0.52563920  0.88341024    -0.28400
C1052       C  0.05839609  0.53479098  0.88862039    -0.03600
C1053       C  0.04373435  0.51227363  0.87485308     0.05000
C1054       C  0.05854228  0.98969964  0.86128524     0.03100
H1055       H  0.05325971  0.55575413  0.90197822     0.08200
H1056       H  0.05355654  0.96858924  0.84802605     0.07000
N1057       N  0.76970175  0.95917296  0.91516538    -0.27400
N1058       N  0.74956108  0.97260369  0.90709283    -0.35200
C1059       C  0.73222399  0.96016001  0.92287569     0.01000
C1060       C  0.74194472  0.93751009  0.94148124     0.07000
C1061       C  0.76568508  0.93733651  0.93598825    -0.06100
H1062       H  0.71393190  0.96707502  0.92091139     0.07700
H1063       H  0.77914263  0.92327923  0.94687343     0.08900
Cu1064     Cu  0.74656996  0.50732028  0.87518827     0.44200
Cu1065     Cu  0.80191860  0.97350843  0.89937551     0.42000
Cu1066     Cu  0.80126436  0.54445477  0.85167283     0.43900
N1067       N  0.74888788  0.54279505  0.84373043    -0.34700
N1068       N  0.76876718  0.55735532  0.83596474    -0.29000
C1069       C  0.76433918  0.57985458  0.81573750    -0.05100
C1070       C  0.74061102  0.57903847  0.81033020     0.07100
C1071       C  0.73130630  0.55523295  0.82834101     0.00900
H1072       H  0.77750806  0.59508496  0.80533843     0.08600
H1073       H  0.71312169  0.54774946  0.83032546     0.07600
N1074       N  0.83171544  0.52309382  0.86722348    -0.36200
N1075       N  0.83194476  0.49598982  0.88365288    -0.28400
C1076       C  0.85427821  0.48715548  0.88884695    -0.03600
C1077       C  0.86878340  0.51009865  0.87529907     0.05000
C1078       C  0.85390434  0.53260779  0.86185874     0.03100
H1079       H  0.85954622  0.96601477  0.90194704     0.08200
H1080       H  0.85882486  0.55387710  0.84870368     0.07000
O1081       O  0.23740579  0.87632092  0.72251618    -0.73000
O1082       O  0.20398769  0.93065489  0.78042013    -0.74000
O1083       O  0.23747565  0.87613524  0.77970339    -0.62600
O1084       O  0.20395271  0.93057638  0.72208331    -0.71000
O1085       O  0.17490984  0.89234919  0.72255352    -0.70600
O1086       O  0.20821703  0.83826898  0.78045947    -0.61800
O1087       O  0.17476696  0.89274221  0.77992061    -0.74300
O1088       O  0.20840161  0.83803342  0.72226513    -0.73100
Cu1089     Cu  0.22167347  0.90484549  0.75119610     1.04600
Cu1090     Cu  0.19057448  0.86396581  0.75131775     1.04300
C1091       C  0.22824678  0.84853683  0.71342578     0.93200
C1092       C  0.18408204  0.92033937  0.78918856     0.92300
C1093       C  0.22821027  0.84846714  0.78892947     0.84500
C1094       C  0.18418091  0.91994897  0.71322340     0.90700
N1095       N  0.26938857  0.80455936  0.83341942    -0.27400
N1096       N  0.24934532  0.79238967  0.84298003    -0.35200
C1097       C  0.23156504  0.80584721  0.82846731     0.01000
C1098       C  0.24090275  0.82800558  0.80923114     0.07000
C1099       C  0.26487857  0.82667667  0.81293268    -0.06100
H1100       H  0.21322138  0.80040701  0.83202724     0.07700
H1101       H  0.27809660  0.84034582  0.80133244     0.08900
Cu1102     Cu  0.24697284  0.75952788  0.87612481     0.44200
Cu1103     Cu  0.30197044  0.78997007  0.84810590     0.42000
Cu1104     Cu  0.30183573  0.73313497  0.90678047     0.43900
N1105       N  0.24924643  0.72677442  0.90934123    -0.34700
N1106       N  0.26930133  0.71598555  0.91980401    -0.29000
C1107       C  0.26478495  0.69380841  0.94026159    -0.05100
C1108       C  0.24076912  0.69107640  0.94303703     0.07100
C1109       C  0.23141996  0.71240395  0.92326065     0.00900
H1110       H  0.27799942  0.68135041  0.95265414     0.08600
H1111       H  0.21306095  0.71687343  0.91907964     0.07600
N1112       N  0.33204283  0.75282900  0.88920515    -0.36200
N1113       N  0.33214871  0.77222644  0.86698120    -0.28400
C1114       C  0.35446486  0.77854879  0.85967174    -0.03600
C1115       C  0.36900565  0.76288582  0.87850231     0.05000
C1116       C  0.35426597  0.74695422  0.89700430     0.03100
H1117       H  0.35970020  0.79371777  0.84214137     0.08200
H1118       H  0.35931840  0.73141940  0.91439354     0.07000
N1119       N  0.64359750  0.71164277  0.83704524    -0.27400
N1120       N  0.66367145  0.72475374  0.84560500    -0.35200
C1121       C  0.68119807  0.71229107  0.83007977     0.01000
C1122       C  0.67167174  0.68992342  0.81114033     0.07000
C1123       C  0.64784376  0.68997923  0.81616484    -0.06100
H1124       H  0.69950667  0.71874962  0.83260897     0.07700
H1125       H  0.63451118  0.67595136  0.80507363     0.08900
Cu1126     Cu  0.66632076  0.75839089  0.87827149     0.44200
Cu1127     Cu  0.61123456  0.72556578  0.85280580     0.42000
Cu1128     Cu  0.61137500  0.78984971  0.90623676     0.43900
N1129       N  0.66403689  0.79198874  0.91101192    -0.34700
N1130       N  0.64404013  0.80450310  0.92047021    -0.29000
C1131       C  0.64860728  0.82662791  0.94091834    -0.05100
C1132       C  0.67256678  0.82759737  0.94472903     0.07100
C1133       C  0.68184613  0.80527843  0.92555338     0.00900
H1134       H  0.63542785  0.84043858  0.95248879     0.08600
H1135       H  0.70016782  0.79952322  0.92211715     0.07600
N1136       N  0.58108702  0.76978217  0.88926132    -0.36200
N1137       N  0.58103789  0.74633990  0.86965982    -0.28400
C1138       C  0.55876219  0.73900398  0.86295404    -0.03600
C1139       C  0.54399101  0.75864328  0.87924813     0.05000
C1140       C  0.55884334  0.77784123  0.89569680     0.03100
H1141       H  0.55378178  0.72041144  0.84753777     0.08200
H1142       H  0.55394802  0.79663094  0.91102103     0.07000
O1143       O  0.70516277  0.83752181  0.97370334    -0.73000
O1144       O  0.73931429  0.89275158  0.53031852    -0.74000
O1145       O  0.70528331  0.83931827  0.53198118    -0.62600
O1146       O  0.73904644  0.89111779  0.97285779    -0.71000
O1147       O  0.71009512  0.92954677  0.97194597    -0.70600
O1148       O  0.67654438  0.87809637  0.53102663    -0.61800
O1149       O  0.71048256  0.93138912  0.53023457    -0.74300
O1150       O  0.67624937  0.87603754  0.97384429    -0.73100
Cu1151     Cu  0.72319586  0.86374061  0.50223087     1.04600
Cu1152     Cu  0.69240108  0.90519905  0.50173240     1.04300
C1153       C  0.68530129  0.84800837  0.96499503     0.93200
C1154       C  0.73021148  0.92072228  0.53922366     0.92300
C1155       C  0.68558459  0.85056772  0.54073264     0.84500
C1156       C  0.72978158  0.91849080  0.96308528     0.90700
N1157       N  0.26908372  0.80755906  0.66654192    -0.27400
N1158       N  0.24924929  0.79277462  0.65897398    -0.35200
C1159       C  0.23166035  0.80471307  0.67466041     0.01000
C1160       C  0.24085802  0.82850945  0.69269375     0.07000
C1161       C  0.26457737  0.82977025  0.68698904    -0.06100
H1162       H  0.21350246  0.79709859  0.67271224     0.07700
H1163       H  0.27765994  0.84529653  0.69721001     0.08900
Cu1164     Cu  0.24687183  0.75842030  0.62690129     0.44200
Cu1165     Cu  0.30155902  0.79554087  0.64976106     0.42000
Cu1166     Cu  0.30220716  0.72820194  0.59879289     0.43900
N1167       N  0.24945311  0.72593872  0.59364276    -0.34700
N1168       N  0.26950593  0.71374217  0.58407575    -0.29000
C1169       C  0.26496503  0.69221233  0.56320828    -0.05100
C1170       C  0.24099040  0.69135359  0.55929389     0.07100
C1171       C  0.23167925  0.71312359  0.57879850     0.00900
H1172       H  0.27816270  0.67866231  0.55146914     0.08600
H1173       H  0.21334934  0.71873961  0.58231492     0.07600
N1174       N  0.33242343  0.74963777  0.61529733    -0.36200
N1175       N  0.33217102  0.77517539  0.63322194    -0.28400
C1176       C  0.35438261  0.78374707  0.63942511    -0.03600
C1177       C  0.36940555  0.76235453  0.62491024     0.05000
C1178       C  0.35480185  0.74102970  0.60984772     0.03100
H1179       H  0.35919957  0.80353351  0.65397692     0.08200
H1180       H  0.36002358  0.72095298  0.59571986     0.07000
N1181       N  0.64478534  0.81125505  0.58841156    -0.27400
N1182       N  0.66469907  0.79709502  0.59648908    -0.35200
C1183       C  0.68229391  0.80876710  0.58073819     0.01000
C1184       C  0.67302789  0.83171952  0.56210987     0.07000
C1185       C  0.64926414  0.83286166  0.56756100    -0.06100
H1186       H  0.70045702  0.80120534  0.58281625     0.07700
H1187       H  0.63610535  0.84751865  0.55667369     0.08900
Cu1188     Cu  0.66723574  0.76259926  0.62836951     0.44200
Cu1189     Cu  0.61216961  0.79815202  0.60425048     0.42000
Cu1190     Cu  0.61214008  0.72548459  0.65020728     0.43900
N1191       N  0.66435126  0.72713654  0.65955458    -0.34700
N1192       N  0.64437694  0.71240156  0.66674211    -0.29000
C1193       C  0.64852567  0.68991622  0.68707601    -0.05100
C1194       C  0.67215484  0.69099560  0.69310797     0.07100
C1195       C  0.68168405  0.71488499  0.67536946     0.00900
H1196       H  0.63523393  0.67454627  0.69713546     0.08600
H1197       H  0.69986339  0.72257053  0.67385555     0.07600
N1198       N  0.58177637  0.74770277  0.63494943    -0.36200
N1199       N  0.58174247  0.77563682  0.61939051    -0.28400
C1200       C  0.55942666  0.78500058  0.61447547    -0.03600
C1201       C  0.54474950  0.76150255  0.62721671     0.05000
C1202       C  0.55950789  0.73814435  0.63991996     0.03100
H1203       H  0.55426600  0.80685892  0.60207973     0.08200
H1204       H  0.55443904  0.71628229  0.65237650     0.07000
O1205       O  0.67511775  0.64334284  0.72311710    -0.73000
O1206       O  0.70839760  0.58863957  0.78066084    -0.74000
O1207       O  0.67485967  0.64285599  0.78046997    -0.62600
O1208       O  0.70864132  0.58923600  0.72236679    -0.71000
O1209       O  0.73769584  0.62742486  0.72323369    -0.70600
O1210       O  0.70395470  0.68098138  0.78131845    -0.61800
O1211       O  0.73744333  0.62687316  0.78054598    -0.74300
O1212       O  0.70416965  0.68156821  0.72304593    -0.73100
Cu1213     Cu  0.69076863  0.61461697  0.75164493     1.04600
Cu1214     Cu  0.72179463  0.65562686  0.75204732     1.04300
C1215       C  0.68441469  0.67106064  0.71405756     0.93200
C1216       C  0.72818082  0.59911401  0.78958594     0.92300
C1217       C  0.68410281  0.67035390  0.79000546     0.84500
C1218       C  0.72850169  0.59988524  0.71371286     0.90700
O1219       O  0.23727603  0.64334425  0.52979401    -0.73000
O1220       O  0.20344013  0.58905856  0.97245959    -0.74000
O1221       O  0.23721354  0.64307252  0.97268225    -0.62600
O1222       O  0.20345246  0.58957235  0.53077395    -0.71000
O1223       O  0.17453770  0.62806582  0.53028534    -0.70600
O1224       O  0.20812330  0.68129009  0.97202196    -0.61800
O1225       O  0.17442630  0.62738858  0.97291013    -0.74300
O1226       O  0.20835101  0.68183716  0.53022278    -0.73100
Cu1227     Cu  0.22129980  0.61480847  0.50142419     1.04600
Cu1228     Cu  0.19036618  0.65603919  0.50134733     1.04300
C1229       C  0.22822656  0.67125116  0.53885228     0.93200
C1230       C  0.18362314  0.59965049  0.96368247     0.92300
C1231       C  0.22804159  0.67079366  0.96343269     0.84500
C1232       C  0.18372403  0.60045386  0.53969866     0.90700
N1233       N  0.14364932  0.56108050  0.58819686    -0.27400
N1234       N  0.16349154  0.54586504  0.59522390    -0.35200
C1235       C  0.18080378  0.55731600  0.57893741     0.01000
C1236       C  0.17139851  0.58113618  0.56103998     0.07000
C1237       C  0.14784843  0.58301251  0.56748422    -0.06100
H1238       H  0.19889861  0.54912255  0.58021766     0.07700
H1239       H  0.13464332  0.59858337  0.55749107     0.08900
Cu1240     Cu  0.16612628  0.01053877  0.62672118     0.44200
Cu1241     Cu  0.11154688  0.54923091  0.60556807     0.42000
Cu1242     Cu  0.11143450  0.97460031  0.65041321     0.43900
N1243       N  0.16373643  0.97525045  0.65828252    -0.34700
N1244       N  0.14379570  0.96096409  0.66612738    -0.29000
C1245       C  0.14810125  0.93880847  0.68663771    -0.05100
C1246       C  0.17182420  0.93960315  0.69214628     0.07100
C1247       C  0.18123885  0.96299986  0.67387920     0.00900
H1248       H  0.13484815  0.92396086  0.69723636     0.08600
H1249       H  0.19943827  0.97043039  0.67193255     0.07600
N1250       N  0.08135077  0.99837752  0.63610217    -0.36200
N1251       N  0.08142859  0.52687767  0.62118421    -0.28400
C1252       C  0.05919994  0.53684237  0.61669126    -0.03600
C1253       C  0.04447894  0.51318908  0.62905155     0.05000
C1254       C  0.05906114  0.98907914  0.64108179     0.03100
H1255       H  0.05413565  0.55907156  0.60464042     0.08200
H1256       H  0.05387260  0.96674019  0.65293684     0.07000
N1257       N  0.76937205  0.55911794  0.66684680    -0.27400
N1258       N  0.74948763  0.54512318  0.65855350    -0.35200
C1259       C  0.73182336  0.55724792  0.67405527     0.01000
C1260       C  0.74107058  0.58029121  0.69269254     0.07000
C1261       C  0.76486524  0.58096335  0.68752241    -0.06100
H1262       H  0.71361530  0.55009341  0.67172033     0.06500
H1263       H  0.77801711  0.59564649  0.69837459     0.08900
Cu1264     Cu  0.74733287  0.51072766  0.62628264     0.44200
Cu1265     Cu  0.80193916  0.54620534  0.65114866     0.42000
Cu1266     Cu  0.80268570  0.97645212  0.60205715     0.43900
N1267       N  0.75032945  0.97624230  0.59415730    -0.34700
N1268       N  0.77043267  0.96258613  0.58610019    -0.29000
C1269       C  0.76632859  0.94049569  0.56547324    -0.05100
C1270       C  0.74257202  0.94072584  0.56009398     0.07100
C1271       C  0.73294266  0.96368666  0.57856230     0.00900
H1272       H  0.77970982  0.92596204  0.55480736     0.08600
H1273       H  0.71464063  0.97046053  0.58075063     0.07600
N1274       N  0.83266528  0.49884740  0.61797767    -0.36200
N1275       N  0.83239625  0.52509580  0.63523720    -0.28400
C1276       C  0.85456915  0.53430585  0.64090522    -0.03600
C1277       C  0.86956702  0.51267159  0.62662670     0.05000
C1278       C  0.85501374  0.49048814  0.61233299     0.03100
H1279       H  0.85935496  0.55482378  0.65482128     0.08200
H1280       H  0.86021512  0.97006524  0.59849686     0.07000
C1281       C  0.96917824  0.57444196  0.63922773    -0.17900
C1282       C  0.94467104  0.57426051  0.63922214    -0.20100
C1283       C  0.93233631  0.54377346  0.63334434     0.20600
C1284       C  0.94481033  0.51311655  0.62751961    -0.03000
C1285       C  0.96952105  0.51315930  0.62795413    -0.06000
C1286       C  0.98175156  0.54406057  0.63361736     0.20900
C1287       C  0.98197310  0.98228704  0.62273132     0.19000
C1288       C  0.96965677  0.95187601  0.61664793    -0.17500
C1289       C  0.94517548  0.95196930  0.61580557    -0.19800
C1290       C  0.93260711  0.98239391  0.62129191     0.20500
C1291       C  0.90805847  0.98257894  0.62077754    -0.32800
C1292       C  0.89549023  0.51291835  0.62682652     0.01200
C1293       C  0.90776501  0.54340094  0.63316319    -0.24100
C1294       C  0.00631875  0.54397541  0.63357655    -0.28700
C1295       C  0.01871900  0.51319268  0.62881705     0.06900
C1296       C  0.00650976  0.98240878  0.62363699    -0.27300
H1297       H  0.97830860  0.59834378  0.64370804     0.11600
H1298       H  0.93535075  0.59802729  0.64371769     0.12700
H1299       H  0.97897177  0.92801091  0.61247652     0.11800
H1300       H  0.93605028  0.92815960  0.61099598     0.11100
H1301       H  0.89874329  0.95887331  0.61615583     0.16400
H1302       H  0.89821686  0.56699626  0.63757159     0.12400
H1303       H  0.01583179  0.56767407  0.63773633     0.15200
H1304       H  0.01616682  0.95873746  0.61974105     0.15000
C1305       C  0.44492272  0.82313428  0.63725574    -0.17900
C1306       C  0.46943990  0.82315331  0.63708368    -0.20100
C1307       C  0.48191685  0.79254537  0.63195237     0.20600
C1308       C  0.46955998  0.76154491  0.62705449    -0.03000
C1309       C  0.44480508  0.76167305  0.62671070    -0.06000
C1310       C  0.43244303  0.79259813  0.63196729     0.20900
C1311       C  0.43245044  0.73091111  0.62101377     0.19000
C1312       C  0.44493595  0.70020454  0.61620616    -0.17500
C1313       C  0.46944963  0.69993352  0.61705457    -0.19800
C1314       C  0.48192683  0.73045119  0.62240099     0.20500
C1315       C  0.50652719  0.73050393  0.62304095    -0.32800
C1316       C  0.51888595  0.76144448  0.62730815     0.01200
C1317       C  0.50650947  0.79238452  0.63158419    -0.24100
C1318       C  0.40784263  0.79249809  0.63168329    -0.28700
C1319       C  0.39539143  0.76207338  0.62561653     0.06900
C1320       C  0.40785339  0.73140153  0.62022079    -0.27300
H1321       H  0.43570435  0.84711007  0.64132370     0.11600
H1322       H  0.47865611  0.84713434  0.64100962     0.12700
H1323       H  0.43572610  0.67633645  0.61186209     0.11800
H1324       H  0.47866554  0.67586276  0.61335723     0.11100
H1325       H  0.51610541  0.70666019  0.61958450     0.16400
H1326       H  0.51606999  0.81620065  0.63509939     0.12400
H1327       H  0.39839282  0.81631414  0.63564294     0.15200
H1328       H  0.39840174  0.70774618  0.61582671     0.15000
C1329       C  0.46850289  0.73668344  0.83289708    -0.17900
C1330       C  0.44401012  0.73799902  0.83256127    -0.20100
C1331       C  0.43158349  0.75009554  0.85537208     0.20600
C1332       C  0.44394362  0.76084845  0.87881447    -0.03000
C1333       C  0.46865926  0.76011579  0.87895529    -0.06000
C1334       C  0.48098003  0.74784527  0.85592417     0.20900
C1335       C  0.48101580  0.77171911  0.90211426     0.19000
C1336       C  0.46858466  0.78349303  0.92503617    -0.17500
C1337       C  0.44408311  0.78361717  0.92509672    -0.19800
C1338       C  0.43161621  0.77236859  0.90211102     0.20500
C1339       C  0.40705120  0.77247073  0.90197041    -0.32800
C1340       C  0.39475172  0.76242196  0.87852296     0.01200
C1341       C  0.40702929  0.75157082  0.85521668    -0.24100
C1342       C  0.50555064  0.74714453  0.85625223    -0.28700
C1343       C  0.51802011  0.75901995  0.87915432     0.06900
C1344       C  0.50557725  0.77131059  0.90198565    -0.27300
H1345       H  0.47769756  0.72716718  0.81505821     0.11600
H1346       H  0.43478192  0.72947709  0.81447513     0.12700
H1347       H  0.47781812  0.79246381  0.94298302     0.11800
H1348       H  0.43488175  0.79265042  0.94308801     0.11100
H1349       H  0.39745846  0.78095731  0.91987098     0.16400
H1350       H  0.39741181  0.74357725  0.83723372     0.12400
H1351       H  0.51491802  0.73792506  0.83844975     0.15200
H1352       H  0.51495263  0.78011971  0.91986938     0.15000
C1353       C  0.96885287  0.94862118  0.87182251    -0.17900
C1354       C  0.94435718  0.94826140  0.87240584    -0.20100
C1355       C  0.93170804  0.97932364  0.87401276     0.20600
C1356       C  0.94384937  0.51109312  0.87509417    -0.03000
C1357       C  0.96856827  0.51141548  0.87502309    -0.06000
C1358       C  0.98110672  0.98002453  0.87316857     0.20900
C1359       C  0.98071584  0.54312316  0.87681501     0.19000
C1360       C  0.96805588  0.57420068  0.87824331    -0.17500
C1361       C  0.94355354  0.57392217  0.87780299    -0.19800
C1362       C  0.93130126  0.54253838  0.87624741     0.20500
C1363       C  0.90673931  0.54201438  0.87587640    -0.32800
C1364       C  0.89459952  0.51044981  0.87520938     0.01200
C1365       C  0.90714705  0.97920749  0.87449696    -0.24100
C1366       C  0.00566441  0.98058901  0.87277638    -0.28700
C1367       C  0.01786037  0.51203007  0.87490286     0.06900
C1368       C  0.00529035  0.54317593  0.87708971    -0.27300
H1369       H  0.97823161  0.92429209  0.87045059     0.11600
H1370       H  0.93528937  0.92366289  0.87148196     0.12700
H1371       H  0.97711940  0.59876696  0.87957511     0.11800
H1372       H  0.93417236  0.59827417  0.87879032     0.11100
H1373       H  0.89703161  0.56612235  0.87666343     0.16400
H1374       H  0.89775584  0.95484765  0.87376419     0.12400
H1375       H  0.01530880  0.95647924  0.87135472     0.15200
H1376       H  0.01465278  0.56750746  0.87848911     0.15000
loop_ 
_geom_bond_atom_site_label_1 
_geom_bond_atom_site_label_2 
_geom_bond_distance 
_geom_bond_site_symmetry_2 
_ccdc_geom_bond_type 
N1            N2   1.323       .  A
N1            C5   1.344       .  A
N1           Cu9   2.073       .  S
N2            C3   1.345       .  A
N2         Cu696   2.070       .  S
C3            C4   1.381       .  A
C3            H6   1.082       .  S
C4            C5   1.382       .  A
C4          C198   1.465       .  S
C5            H7   1.082       .  S
Cu8          N11   2.070       .  S
Cu8         N690   2.070       .  S
Cu9          N19   2.073       .  S
Cu10         N12   2.073       .  S
Cu10         N18   2.073       .  S
N11          N12   1.322       .  A
N11          C15   1.346       .  A
N12          C13   1.344       .  A
C13          C14   1.382       .  A
C13          H16   1.082       .  S
C14          C15   1.382       .  A
C14          C60   1.466       .  S
C15          H17   1.082       .  S
N18         N707   1.322       .  A
N18          C22   1.344       .  A
N19         N706   1.322   1_545  A
N19          C20   1.345       .  A
C20          C21   1.385       .  A
C20          H23   1.082       .  S
C21         C710   1.384   1_545  A
C21         C335   1.477       .  S
C22         C709   1.384       .  A
C22          H24   1.082       .  S
N25          N26   1.322       .  A
N25          C29   1.344       .  A
N25         Cu33   2.070       .  S
N26          C27   1.344       .  A
N26        Cu720   2.068       .  S
C27          C28   1.381       .  A
C27          H30   1.082       .  S
C28          C29   1.381       .  A
C28         C124   1.464       .  S
C29          H31   1.082       .  S
Cu32         N35   2.068       .  S
Cu32        N714   2.068   1_545  S
Cu33        N731   2.070       .  S
Cu34         N36   2.070       .  S
Cu34         N42   2.070       .  S
N35          N36   1.322       .  A
N35          C39   1.345       .  A
N36          C37   1.343       .  A
C37          C38   1.381       .  A
C37          H40   1.082       .  S
C38          C39   1.381       .  A
C38         C184   1.463       .  S
C39          H41   1.082       .  S
N42          N43   1.322   1_545  A
N42          C46   1.345       .  A
N43          C44   1.344       .  A
N43        Cu721   2.070       .  S
C44          C45   1.383   1_565  A
C44         H735   1.082       .  S
C45          C46   1.383       .  A
C45         C332   1.474       .  S
C46          H48   1.082       .  S
H47         C732   1.082       .  S
O49         Cu57   1.998       .  S
O49          C59   1.276       .  A
O50         Cu57   2.015       .  S
O50          C60   1.278       .  A
O51         Cu57   2.000       .  S
O51          C61   1.276       .  A
O52         Cu57   2.013       .  S
O52          C62   1.278       .  A
O53         Cu58   1.999       .  S
O53          C62   1.276       .  A
O54         Cu58   2.011       .  S
O54          C61   1.278       .  A
O55         Cu58   2.003       .  S
O55          C60   1.277       .  A
O56         Cu58   2.016       .  S
O56          C59   1.279       .  A
Cu57        Cu58   2.378       .  S
C59         C128   1.465       .  S
C61          C66   1.464       .  S
C62         C214   1.464       .  S
N63          N64   1.322       .  A
N63          C67   1.344       .  A
N63         Cu71   2.073       .  S
N64          C65   1.345       .  A
N64         Cu70   2.067       .  S
C65          C66   1.381       .  A
C65          H68   1.082       .  S
C66          C67   1.382       .  A
C67          H69   1.082       .  S
Cu70         N73   2.067       .  S
Cu71         N81   2.073       .  S
Cu72         N74   2.072       .  S
Cu72         N80   2.072       .  S
N73          N74   1.322       .  A
N73          C77   1.345       .  A
N74          C75   1.344       .  A
C75          C76   1.381       .  A
C75          H78   1.082       .  S
C76          C77   1.380       .  A
C76         C199   1.463       .  S
C77          H79   1.082       .  S
N80          N81   1.323       .  A
N80          C84   1.345       .  A
N81          C82   1.345       .  A
C82          C83   1.382       .  A
C82          H85   1.082       .  S
C83          C84   1.381       .  A
C83         C308   1.470       .  S
C84          H86   1.082       .  S
N87          N88   1.322       .  A
N87          C91   1.344       .  A
N87         Cu95   2.072       .  S
N88          C89   1.345       .  A
N88         Cu94   2.069       .  S
C89          C90   1.381       .  A
C89          H92   1.082       .  S
C90          C91   1.382       .  A
C90         C185   1.465       .  S
C91          H93   1.082       .  S
Cu94         N97   2.069       .  S
Cu95        N105   2.072       .  S
Cu96         N98   2.071       .  S
Cu96        N104   2.071       .  S
N97          N98   1.323       .  A
N97         C101   1.345       .  A
N98          C99   1.344       .  A
C99         C100   1.381       .  A
C99         H102   1.082       .  S
C100        C101   1.381       .  A
C100        C121   1.463       .  S
C101        H103   1.082       .  S
N104        N105   1.321       .  A
N104        C108   1.344       .  A
N105        C106   1.344       .  A
C106        C107   1.386       .  A
C106        H109   1.082       .  S
C107        C108   1.387       .  A
C107        C311   1.482       .  S
C108        H110   1.082       .  S
O111       Cu463   2.012       .  S
O111        C121   1.278       .  A
O112       Cu119   2.002       .  S
O112        C122   1.276       .  A
O113       Cu119   2.015       .  S
O113        C123   1.279       .  A
O114       Cu463   2.002       .  S
O114        C124   1.276       .  A
O115       Cu464   2.009       .  S
O115        C124   1.277       .  A
O116       Cu120   1.994       .  S
O116        C123   1.275       .  A
O117       Cu120   2.012       .  S
O117        C122   1.278       .  A
O118       Cu464   1.999       .  S
O118        C121   1.276       .  A
Cu119       O455   2.012   1_554  S
Cu119       O458   2.002   1_554  S
Cu119      Cu120   2.378       .  S
Cu120       O459   2.009   1_554  S
Cu120       O462   1.999   1_554  S
C122        C238   1.465       .  S
C123        C152   1.463       .  S
N125        N126   1.322       .  A
N125        C129   1.344       .  A
N125       Cu133   2.079       .  S
N126        C127   1.345       .  A
N126       Cu132   2.063       .  S
C127        C128   1.381       .  A
C127        H130   1.082       .  S
C128        C129   1.383       .  A
C129        H131   1.082       .  S
Cu132       N135   2.063       .  S
Cu133       N143   2.079       .  S
Cu134       N136   2.079       .  S
Cu134       N142   2.079       .  S
N135        N136   1.323       .  A
N135        C139   1.344       .  A
N136        C137   1.345       .  A
C137        C138   1.383       .  A
C137        H140   1.082       .  S
C138        C139   1.379       .  A
C138        C197   1.464       .  S
C139        H141   1.082       .  S
N142        N143   1.322       .  A
N142        C146   1.346       .  A
N143        C144   1.346       .  A
C144        C145   1.387       .  A
C144        H147   1.082       .  S
C145        C146   1.387       .  A
C145        C287   1.484       .  S
C146        H148   1.082       .  S
N149        N150   1.323       .  A
N149        C153   1.344       .  A
N149       Cu157   2.079       .  S
N150        C151   1.344       .  A
N150       Cu156   2.060       .  S
C151        C152   1.379       .  A
C151        H154   1.082       .  S
C152        C153   1.383       .  A
C153        H155   1.082       .  S
Cu156       N159   2.060       .  S
Cu157       N167   2.079       .  S
Cu158       N160   2.074       .  S
Cu158       N166   2.074       .  S
N159        N160   1.322       .  A
N159        C163   1.344       .  A
N160        C161   1.344       .  A
C161        C162   1.382       .  A
C161        H164   1.082       .  S
C162        C163   1.380       .  A
C162        C183   1.463       .  S
C163        H165   1.082       .  S
N166        N167   1.322       .  A
N166        C170   1.346       .  A
N167        C168   1.346       .  A
C168        C169   1.384       .  A
C168        H171   1.082       .  S
C169        C170   1.383       .  A
C169        C284   1.476       .  S
C170        H172   1.082       .  S
O173       Cu181   1.997       .  S
O173        C183   1.276       .  A
O174       Cu181   2.012       .  S
O174        C184   1.278       .  A
O175       Cu181   2.002       .  S
O175        C185   1.276       .  A
O176       Cu181   2.014       .  S
O176        C186   1.278       .  A
O177       Cu182   2.001       .  S
O177        C186   1.276       .  A
O178       Cu182   2.013       .  S
O178        C185   1.278       .  A
O179       Cu182   1.997       .  S
O179        C184   1.276       .  A
O180       Cu182   2.011       .  S
O180        C183   1.278       .  A
Cu181      Cu182   2.378       .  S
C186        C228   1.465       .  S
O187       Cu195   1.997       .  S
O187        C197   1.275       .  A
O188       Cu539   2.013       .  S
O188        C198   1.278       .  A
O189       Cu539   2.000       .  S
O189        C199   1.276       .  A
O190       Cu195   2.014       .  S
O190        C200   1.278       .  A
O191       Cu196   1.999       .  S
O191        C200   1.276       .  A
O192       Cu540   2.011       .  S
O192        C199   1.278       .  A
O193       Cu540   2.001       .  S
O193        C198   1.276       .  A
O194       Cu196   2.015       .  S
O194        C197   1.278       .  A
Cu195       O532   2.013   1_554  S
Cu195       O533   2.000   1_554  S
Cu195      Cu196   2.378       .  S
Cu196       O536   2.011   1_554  S
Cu196       O537   2.001   1_554  S
C200        C204   1.465       .  S
N201        N202   1.322       .  A
N201        C205   1.344       .  A
N201       Cu209   2.071       .  S
N202        C203   1.344       .  A
N202       Cu896   2.067       .  S
C203        C204   1.381       .  A
C203        H206   1.082       .  S
C204        C205   1.382       .  A
C205        H207   1.082       .  S
Cu208       N211   2.067       .  S
Cu208       N890   2.067       .  S
Cu209       N219   2.070       .  S
Cu210       N212   2.070       .  S
Cu210       N218   2.071       .  S
N211        N212   1.322       .  A
N211        C215   1.345       .  A
N212        C213   1.344       .  A
C213        C214   1.382       .  A
C213        H216   1.082       .  S
C214        C215   1.381       .  A
C215        H217   1.082       .  S
N218        N907   1.323       .  A
N218        C222   1.344       .  A
N219        N906   1.323   1_545  A
N219        C220   1.344       .  A
C220        C221   1.382       .  A
C220        H223   1.082       .  S
C221        C910   1.382   1_545  A
C221        C263   1.470       .  S
C222        C909   1.382       .  A
C222        H224   1.082       .  S
N225        N226   1.322       .  A
N225        C229   1.344       .  A
N225       Cu233   2.071       .  S
N226        C227   1.346       .  A
N226       Cu232   2.071       .  S
C227        C228   1.382       .  A
C227        H230   1.082       .  S
C228        C229   1.381       .  A
C229        H231   1.082       .  S
Cu232       N923   2.070   1_545  S
Cu233       N243   2.071       .  S
Cu234       N236   2.072       .  S
Cu234       N930   2.072       .  S
N235        N236   1.323       .  A
N235        C239   1.345       .  A
N235       Cu920   2.070       .  S
N236        C237   1.345       .  A
C237        C238   1.382       .  A
C237        H240   1.082       .  S
C238        C239   1.381       .  A
C239        H241   1.082       .  S
N242        N243   1.321   1_565  A
N242        C246   1.344       .  A
N242       Cu922   2.072       .  S
N243        C244   1.344       .  A
C244        C245   1.385       .  A
C244        H247   1.082       .  S
C245        C246   1.386   1_545  A
C245        C260   1.480       .  S
C246        H936   1.082       .  S
H248        C934   1.082       .  S
C249        C250   1.399       .  A
C249        C254   1.403       .  A
C249        H265   1.084       .  S
C250        C251   1.404       .  A
C250        H266   1.084       .  S
C251        C261   1.403       .  A
C251        C252   1.411       .  A
C252        C253   1.411       .  A
C252        C946   1.411   1_545  A
C253        C254   1.412       .  A
C253        C943   1.412   1_545  A
C254        C262   1.402   1_655  A
C255        C264   1.401   1_655  A
C255        C256   1.403       .  A
C255        C941   1.412       .  A
C256        C257   1.398       .  A
C256        H267   1.084       .  S
C257        C258   1.403       .  A
C257        H268   1.084       .  S
C258        C259   1.401       .  A
C258        C940   1.411       .  A
C259        C948   1.406       .  A
C259        H269   1.084       .  S
C260        C261   1.407       .  A
C260        C947   1.406   1_545  A
C261        H270   1.084       .  S
C262        C263   1.404       .  A
C262        H271   1.085       .  S
C263        C952   1.403   1_545  A
C264        C951   1.403       .  A
C264        H272   1.085       .  S
C273        C274   1.399       .  A
C273        C278   1.404       .  A
C273        H289   1.084       .  S
C274        C275   1.403       .  A
C274        H290   1.084       .  S
C275        C285   1.404       .  A
C275        C276   1.412       .  A
C276        C282   1.412       .  A
C276        C277   1.413       .  A
C277        C279   1.411       .  A
C277        C278   1.412       .  A
C278        C286   1.404       .  A
C279        C288   1.405       .  A
C279        C280   1.404       .  A
C280        C281   1.400       .  A
C280        H291   1.084       .  S
C281        C282   1.404       .  A
C281        H292   1.084       .  S
C282        C283   1.405       .  A
C283        C284   1.405       .  A
C283        H293   1.085       .  S
C284        C285   1.404       .  A
C285        H294   1.085       .  S
C286        C287   1.407       .  A
C286        H295   1.084       .  S
C287        C288   1.407       .  A
C288        H296   1.084       .  S
C297        C298   1.399       .  A
C297        C302   1.404       .  A
C297        H313   1.083       .  S
C298        C299   1.403       .  A
C298        H314   1.083       .  S
C299        C309   1.403       .  A
C299        C300   1.412       .  A
C300        C306   1.412       .  A
C300        C301   1.411       .  A
C301        C303   1.411       .  A
C301        C302   1.411       .  A
C302        C310   1.403       .  A
C303        C312   1.402       .  A
C303        C304   1.404       .  A
C304        C305   1.398       .  A
C304        H315   1.083       .  S
C305        C306   1.403       .  A
C305        H316   1.083       .  S
C306        C307   1.402       .  A
C307        C308   1.403       .  A
C307        H317   1.084       .  S
C308        C309   1.403       .  A
C309        H318   1.084       .  S
C310        C311   1.407       .  A
C310        H319   1.083       .  S
C311        C312   1.407       .  A
C312        H320   1.083       .  S
C321        C322   1.398       .  A
C321        C326   1.403       .  A
C321        H337   1.084       .  S
C322        C323   1.403       .  A
C322        H338   1.084       .  S
C323        C333   1.402       .  A
C323       C1012   1.412       .  A
C324        C330   1.412       .  A
C324        C325   1.411       .  A
C324       C1011   1.412   1_545  A
C325        C327   1.412       .  A
C325       C1014   1.411   1_545  A
C326        C334   1.402   1_655  A
C326       C1013   1.412       .  A
C327        C336   1.403   1_655  A
C327        C328   1.403       .  A
C328        C329   1.399       .  A
C328        H339   1.084       .  S
C329        C330   1.403       .  A
C329        H340   1.084       .  S
C330        C331   1.402       .  A
C331        C332   1.404       .  A
C331        H341   1.085       .  S
C332       C1021   1.404   1_545  A
C333       C1020   1.404       .  A
C333        H342   1.085       .  S
C334       C1023   1.405       .  A
C334        H343   1.085       .  S
C335        C336   1.405       .  A
C335       C1022   1.405   1_545  A
C336        H344   1.084       .  S
N345        N346   1.323       .  A
N345        C349   1.344       .  A
N345       Cu353   2.073       .  S
N346        C347   1.345       .  A
N346      Cu1040   2.070       .  S
C347        C348   1.381       .  A
C347        H350   1.082       .  S
C348        C349   1.382       .  A
C348        C542   1.465       .  S
C349        H351   1.082       .  S
Cu352      N1034   2.070       .  S
Cu352       N355   2.070       .  S
Cu353       N363   2.073       .  S
Cu354       N356   2.073       .  S
Cu354       N362   2.073       .  S
N355        N356   1.322       .  A
N355        C359   1.346       .  A
N356        C357   1.344       .  A
C357        C358   1.382       .  A
C357        H360   1.082       .  S
C358        C359   1.382       .  A
C358        C404   1.466       .  S
C359        H361   1.082       .  S
N362       N1051   1.322       .  A
N362        C366   1.344       .  A
N363       N1050   1.322   1_545  A
N363        C364   1.345       .  A
C364        C365   1.385       .  A
C364        H367   1.082       .  S
C365       C1054   1.384   1_545  A
C365        C679   1.477       .  S
C366       C1053   1.384       .  A
C366        H368   1.082       .  S
N369        N370   1.322       .  A
N369        C373   1.344       .  A
N369       Cu377   2.070       .  S
N370        C371   1.344       .  A
N370      Cu1064   2.068       .  S
C371        C372   1.381       .  A
C371        H374   1.082       .  S
C372        C373   1.381       .  A
C372        C468   1.464       .  S
C373        H375   1.082       .  S
Cu376      N1058   2.068   1_545  S
Cu376       N379   2.068       .  S
Cu377      N1075   2.070       .  S
Cu378       N380   2.070       .  S
Cu378       N386   2.070       .  S
N379        N380   1.322       .  A
N379        C383   1.345       .  A
N380        C381   1.343       .  A
C381        C382   1.381       .  A
C381        H384   1.082       .  S
C382        C383   1.381       .  A
C382        C528   1.463       .  S
C383        H385   1.082       .  S
N386        N387   1.322   1_545  A
N386        C390   1.345       .  A
N387        C388   1.344       .  A
N387      Cu1065   2.070       .  S
C388        C389   1.383   1_565  A
C388       H1079   1.082       .  S
C389        C390   1.383       .  A
C389        C676   1.474       .  S
C390        H392   1.082       .  S
H391       C1076   1.082       .  S
O393       Cu401   1.998       .  S
O393        C403   1.276       .  A
O394       Cu401   2.015       .  S
O394        C404   1.278       .  A
O395       Cu401   2.000       .  S
O395        C405   1.276       .  A
O396       Cu401   2.013       .  S
O396        C406   1.278       .  A
O397       Cu402   1.999       .  S
O397        C406   1.276       .  A
O398       Cu402   2.011       .  S
O398        C405   1.278       .  A
O399       Cu402   2.003       .  S
O399        C404   1.277       .  A
O400       Cu402   2.016       .  S
O400        C403   1.279       .  A
Cu401      Cu402   2.378       .  S
C403        C472   1.465       .  S
C405        C410   1.464       .  S
C406        C558   1.464       .  S
N407        N408   1.322       .  A
N407        C411   1.344       .  A
N407       Cu415   2.073       .  S
N408        C409   1.345       .  A
N408       Cu414   2.067       .  S
C409        C410   1.381       .  A
C409        H412   1.082       .  S
C410        C411   1.382       .  A
C411        H413   1.082       .  S
Cu414       N417   2.067       .  S
Cu415       N425   2.073       .  S
Cu416       N418   2.072       .  S
Cu416       N424   2.072       .  S
N417        N418   1.322       .  A
N417        C421   1.345       .  A
N418        C419   1.344       .  A
C419        C420   1.381       .  A
C419        H422   1.082       .  S
C420        C421   1.380       .  A
C420        C543   1.463       .  S
C421        H423   1.082       .  S
N424        N425   1.323       .  A
N424        C428   1.345       .  A
N425        C426   1.345       .  A
C426        C427   1.382       .  A
C426        H429   1.082       .  S
C427        C428   1.381       .  A
C427        C652   1.470       .  S
C428        H430   1.082       .  S
N431        N432   1.322       .  A
N431        C435   1.344       .  A
N431       Cu439   2.072       .  S
N432        C433   1.345       .  A
N432       Cu438   2.069       .  S
C433        C434   1.381       .  A
C433        H436   1.082       .  S
C434        C435   1.382       .  A
C434        C529   1.465       .  S
C435        H437   1.082       .  S
Cu438       N441   2.069       .  S
Cu439       N449   2.072       .  S
Cu440       N442   2.071       .  S
Cu440       N448   2.071       .  S
N441        N442   1.323       .  A
N441        C445   1.345       .  A
N442        C443   1.344       .  A
C443        C444   1.381       .  A
C443        H446   1.082       .  S
C444        C445   1.381       .  A
C444        C465   1.463       .  S
C445        H447   1.082       .  S
N448        N449   1.321       .  A
N448        C452   1.344       .  A
N449        C450   1.344       .  A
C450        C451   1.386       .  A
C450        H453   1.082       .  S
C451        C452   1.387       .  A
C451        C655   1.482       .  S
C452        H454   1.081       .  S
O455        C465   1.278       .  A
O456       Cu463   2.002       .  S
O456        C466   1.276       .  A
O457       Cu463   2.015       .  S
O457        C467   1.279       .  A
O458        C468   1.276       .  A
O459        C468   1.277       .  A
O460       Cu464   1.994       .  S
O460        C467   1.275       .  A
O461       Cu464   2.012       .  S
O461        C466   1.278       .  A
O462        C465   1.276       .  A
Cu463      Cu464   2.378       .  S
C466        C582   1.465       .  S
C467        C496   1.463       .  S
N469        N470   1.322       .  A
N469        C473   1.344       .  A
N469       Cu477   2.079       .  S
N470        C471   1.345       .  A
N470       Cu476   2.063       .  S
C471        C472   1.381       .  A
C471        H474   1.082       .  S
C472        C473   1.383       .  A
C473        H475   1.082       .  S
Cu476       N479   2.063       .  S
Cu477       N487   2.079       .  S
Cu478       N480   2.079       .  S
Cu478       N486   2.079       .  S
N479        N480   1.323       .  A
N479        C483   1.344       .  A
N480        C481   1.345       .  A
C481        C482   1.383       .  A
C481        H484   1.082       .  S
C482        C483   1.379       .  A
C482        C541   1.464       .  S
C483        H485   1.082       .  S
N486        N487   1.322       .  A
N486        C490   1.346       .  A
N487        C488   1.346       .  A
C488        C489   1.387       .  A
C488        H491   1.082       .  S
C489        C490   1.387       .  A
C489        C631   1.484       .  S
C490        H492   1.082       .  S
N493        N494   1.323       .  A
N493        C497   1.344       .  A
N493       Cu501   2.079       .  S
N494        C495   1.344       .  A
N494       Cu500   2.060       .  S
C495        C496   1.379       .  A
C495        H498   1.082       .  S
C496        C497   1.383       .  A
C497        H499   1.082       .  S
Cu500       N503   2.060       .  S
Cu501       N511   2.079       .  S
Cu502       N504   2.074       .  S
Cu502       N510   2.074       .  S
N503        N504   1.322       .  A
N503        C507   1.344       .  A
N504        C505   1.344       .  A
C505        C506   1.382       .  A
C505        H508   1.082       .  S
C506        C507   1.380       .  A
C506        C527   1.463       .  S
C507        H509   1.082       .  S
N510        N511   1.322       .  A
N510        C514   1.346       .  A
N511        C512   1.346       .  A
C512        C513   1.384       .  A
C512        H515   1.082       .  S
C513        C514   1.383       .  A
C513        C628   1.476       .  S
C514        H516   1.082       .  S
O517       Cu525   1.997       .  S
O517        C527   1.276       .  A
O518       Cu525   2.012       .  S
O518        C528   1.278       .  A
O519       Cu525   2.002       .  S
O519        C529   1.276       .  A
O520       Cu525   2.014       .  S
O520        C530   1.278       .  A
O521       Cu526   2.001       .  S
O521        C530   1.276       .  A
O522       Cu526   2.013       .  S
O522        C529   1.278       .  A
O523       Cu526   1.997       .  S
O523        C528   1.276       .  A
O524       Cu526   2.011       .  S
O524        C527   1.278       .  A
Cu525      Cu526   2.378       .  S
C530        C572   1.465       .  S
O531       Cu539   1.997       .  S
O531        C541   1.275       .  A
O532        C542   1.278       .  A
O533        C543   1.276       .  A
O534       Cu539   2.014       .  S
O534        C544   1.278       .  A
O535       Cu540   1.999       .  S
O535        C544   1.276       .  A
O536        C543   1.278       .  A
O537        C542   1.276       .  A
O538       Cu540   2.015       .  S
O538        C541   1.278       .  A
Cu539      Cu540   2.378       .  S
C544        C548   1.465       .  S
N545        N546   1.322       .  A
N545        C549   1.344       .  A
N545       Cu553   2.071       .  S
N546        C547   1.344       .  A
N546      Cu1240   2.067       .  S
C547        C548   1.381       .  A
C547        H550   1.082       .  S
C548        C549   1.382       .  A
C549        H551   1.082       .  S
Cu552      N1234   2.067       .  S
Cu552       N555   2.067       .  S
Cu553       N563   2.070       .  S
Cu554       N556   2.070       .  S
Cu554       N562   2.071       .  S
N555        N556   1.322       .  A
N555        C559   1.345       .  A
N556        C557   1.344       .  A
C557        C558   1.382       .  A
C557        H560   1.082       .  S
C558        C559   1.381       .  A
C559        H561   1.082       .  S
N562       N1251   1.323       .  A
N562        C566   1.344       .  A
N563       N1250   1.323   1_545  A
N563        C564   1.344       .  A
C564        C565   1.382       .  A
C564        H567   1.082       .  S
C565       C1254   1.382   1_545  A
C565        C607   1.470       .  S
C566       C1253   1.382       .  A
C566        H568   1.082       .  S
N569        N570   1.322       .  A
N569        C573   1.344       .  A
N569       Cu577   2.071       .  S
N570        C571   1.346       .  A
N570       Cu576   2.071       .  S
C571        C572   1.382       .  A
C571        H574   1.082       .  S
C572        C573   1.381       .  A
C573        H575   1.082       .  S
Cu576      N1267   2.070   1_545  S
Cu577       N587   2.071       .  S
Cu578       N580   2.072       .  S
Cu578      N1274   2.072       .  S
N579        N580   1.323       .  A
N579        C583   1.345       .  A
N579      Cu1264   2.070       .  S
N580        C581   1.345       .  A
C581        C582   1.382       .  A
C581        H584   1.082       .  S
C582        C583   1.381       .  A
C583        H585   1.082       .  S
N586        N587   1.321   1_565  A
N586        C590   1.344       .  A
N586      Cu1266   2.072       .  S
N587        C588   1.344       .  A
C588        C589   1.385       .  A
C588        H591   1.082       .  S
C589        C590   1.386   1_545  A
C589        C604   1.480       .  S
C590       H1280   1.082       .  S
H592       C1278   1.082       .  S
C593        C594   1.399       .  A
C593        C598   1.403       .  A
C593        H609   1.084       .  S
C594        C595   1.404       .  A
C594        H610   1.084       .  S
C595        C605   1.403       .  A
C595        C596   1.411       .  A
C596       C1290   1.411   1_545  A
C596        C597   1.411       .  A
C597       C1287   1.412   1_545  A
C597        C598   1.412       .  A
C598        C606   1.402   1_655  A
C599       C1285   1.412       .  A
C599        C608   1.401   1_655  A
C599        C600   1.403       .  A
C600        C601   1.398       .  A
C600        H611   1.084       .  S
C601        C602   1.403       .  A
C601        H612   1.084       .  S
C602       C1284   1.411       .  A
C602        C603   1.401       .  A
C603       C1292   1.406       .  A
C603        H613   1.084       .  S
C604       C1291   1.406   1_545  A
C604        C605   1.407       .  A
C605        H614   1.084       .  S
C606        C607   1.404       .  A
C606        H615   1.085       .  S
C607       C1296   1.403   1_545  A
C608       C1295   1.403       .  A
C608        H616   1.085       .  S
C617        C618   1.399       .  A
C617        C622   1.404       .  A
C617        H633   1.084       .  S
C618        C619   1.403       .  A
C618        H634   1.084       .  S
C619        C629   1.404       .  A
C619        C620   1.412       .  A
C620        C626   1.412       .  A
C620        C621   1.413       .  A
C621        C623   1.411       .  A
C621        C622   1.412       .  A
C622        C630   1.404       .  A
C623        C632   1.405       .  A
C623        C624   1.404       .  A
C624        C625   1.400       .  A
C624        H635   1.084       .  S
C625        C626   1.404       .  A
C625        H636   1.084       .  S
C626        C627   1.405       .  A
C627        C628   1.405       .  A
C627        H637   1.085       .  S
C628        C629   1.404       .  A
C629        H638   1.085       .  S
C630        C631   1.407       .  A
C630        H639   1.084       .  S
C631        C632   1.407       .  A
C632        H640   1.084       .  S
C641        C642   1.399       .  A
C641        C646   1.404       .  A
C641        H657   1.083       .  S
C642        C643   1.403       .  A
C642        H658   1.083       .  S
C643        C653   1.403       .  A
C643        C644   1.412       .  A
C644        C650   1.412       .  A
C644        C645   1.411       .  A
C645        C647   1.411       .  A
C645        C646   1.411       .  A
C646        C654   1.403       .  A
C647        C656   1.402       .  A
C647        C648   1.404       .  A
C648        C649   1.398       .  A
C648        H659   1.083       .  S
C649        C650   1.403       .  A
C649        H660   1.083       .  S
C650        C651   1.402       .  A
C651        C652   1.403       .  A
C651        H661   1.084       .  S
C652        C653   1.403       .  A
C653        H662   1.084       .  S
C654        C655   1.407       .  A
C654        H663   1.083       .  S
C655        C656   1.407       .  A
C656        H664   1.083       .  S
C665        C666   1.398       .  A
C665        C670   1.403       .  A
C665        H681   1.084       .  S
C666        C667   1.403       .  A
C666        H682   1.084       .  S
C667        C677   1.402       .  A
C667       C1356   1.412       .  A
C668       C1355   1.412   1_545  A
C668        C674   1.412       .  A
C668        C669   1.411       .  A
C669        C671   1.412       .  A
C669       C1358   1.412   1_545  A
C670       C1357   1.412       .  A
C670        C678   1.402   1_655  A
C671        C680   1.403   1_655  A
C671        C672   1.403       .  A
C672        C673   1.399       .  A
C672        H683   1.084       .  S
C673        C674   1.403       .  A
C673        H684   1.084       .  S
C674        C675   1.402       .  A
C675        C676   1.404       .  A
C675        H685   1.085       .  S
C676       C1365   1.404   1_545  A
C677       C1364   1.404       .  A
C677        H686   1.085       .  S
C678       C1367   1.405       .  A
C678        H687   1.085       .  S
C679       C1366   1.405   1_545  A
C679        C680   1.405       .  A
C680        H688   1.084       .  S
N689        N690   1.323       .  A
N689        C693   1.344       .  A
N689       Cu697   2.073       .  S
N690        C691   1.345       .  A
C691        C692   1.381       .  A
C691        H694   1.082       .  S
C692        C693   1.382       .  A
C692        C886   1.465       .  S
C693        H695   1.082       .  S
Cu696       N699   2.070   1_545  S
Cu697       N707   2.073       .  S
Cu698       N700   2.073       .  S
Cu698       N706   2.073       .  S
N699        N700   1.322       .  A
N699        C703   1.346       .  A
N700        C701   1.344       .  A
C701        C702   1.382       .  A
C701        H704   1.082       .  S
C702        C703   1.382       .  A
C702        C748   1.466       .  S
C703        H705   1.082       .  S
N706        C710   1.344       .  A
N707        C708   1.345       .  A
C708        C709   1.385       .  A
C708        H711   1.082       .  S
C709       C1023   1.477       .  S
C710        H712   1.082       .  S
N713        N714   1.322       .  A
N713        C717   1.344       .  A
N713       Cu721   2.070       .  S
N714        C715   1.344       .  A
C715        C716   1.381       .  A
C715        H718   1.082       .  S
C716        C717   1.381       .  A
C716        C812   1.464       .  S
C717        H719   1.082       .  S
Cu720       N723   2.068       .  S
Cu722       N724   2.070       .  S
Cu722       N730   2.070       .  S
N723        N724   1.322       .  A
N723        C727   1.345       .  A
N724        C725   1.343       .  A
C725        C726   1.381       .  A
C725        H728   1.082       .  S
C726        C727   1.381       .  A
C726        C872   1.463       .  S
C727        H729   1.082       .  S
N730        N731   1.322       .  A
N730        C734   1.345       .  A
N731        C732   1.344       .  A
C732        C733   1.383       .  A
C733        C734   1.383       .  A
C733       C1020   1.474       .  S
C734        H736   1.082       .  S
O737       Cu745   1.998       .  S
O737        C747   1.276       .  A
O738       Cu745   2.015       .  S
O738        C748   1.278       .  A
O739       Cu745   2.000       .  S
O739        C749   1.276       .  A
O740       Cu745   2.013       .  S
O740        C750   1.278       .  A
O741       Cu746   1.999       .  S
O741        C750   1.276       .  A
O742       Cu746   2.011       .  S
O742        C749   1.278       .  A
O743       Cu746   2.003       .  S
O743        C748   1.277       .  A
O744       Cu746   2.016       .  S
O744        C747   1.279       .  A
Cu745      Cu746   2.378       .  S
C747        C816   1.465       .  S
C749        C754   1.464       .  S
C750        C902   1.464       .  S
N751        N752   1.322       .  A
N751        C755   1.344       .  A
N751       Cu759   2.073       .  S
N752        C753   1.345       .  A
N752       Cu758   2.067       .  S
C753        C754   1.381       .  A
C753        H756   1.082       .  S
C754        C755   1.382       .  A
C755        H757   1.082       .  S
Cu758       N761   2.067       .  S
Cu759       N769   2.073       .  S
Cu760       N762   2.072       .  S
Cu760       N768   2.072       .  S
N761        N762   1.322       .  A
N761        C765   1.345       .  A
N762        C763   1.344       .  A
C763        C764   1.381       .  A
C763        H766   1.082       .  S
C764        C765   1.380       .  A
C764        C887   1.463       .  S
C765        H767   1.082       .  S
N768        N769   1.323       .  A
N768        C772   1.345       .  A
N769        C770   1.345       .  A
C770        C771   1.382       .  A
C770        H773   1.082       .  S
C771        C772   1.381       .  A
C771        C996   1.470       .  S
C772        H774   1.082       .  S
N775        N776   1.322       .  A
N775        C779   1.344       .  A
N775       Cu783   2.072       .  S
N776        C777   1.345       .  A
N776       Cu782   2.069       .  S
C777        C778   1.381       .  A
C777        H780   1.082       .  S
C778        C779   1.382       .  A
C778        C873   1.465       .  S
C779        H781   1.082       .  S
Cu782       N785   2.069       .  S
Cu783       N793   2.072       .  S
Cu784       N786   2.071       .  S
Cu784       N792   2.071       .  S
N785        N786   1.323       .  A
N785        C789   1.345       .  A
N786        C787   1.344       .  A
C787        C788   1.381       .  A
C787        H790   1.082       .  S
C788        C789   1.381       .  A
C788        C809   1.463       .  S
C789        H791   1.082       .  S
N792        N793   1.321       .  A
N792        C796   1.344       .  A
N793        C794   1.344       .  A
C794        C795   1.386       .  A
C794        H797   1.082       .  S
C795        C796   1.387       .  A
C795        C999   1.482       .  S
C796        H798   1.082       .  S
O799      Cu1151   2.012       .  S
O799        C809   1.278       .  A
O800       Cu807   2.002       .  S
O800        C810   1.276       .  A
O801       Cu807   2.015       .  S
O801        C811   1.279       .  A
O802      Cu1151   2.002       .  S
O802        C812   1.276       .  A
O803      Cu1152   2.009       .  S
O803        C812   1.277       .  A
O804       Cu808   1.994       .  S
O804        C811   1.275       .  A
O805       Cu808   2.012       .  S
O805        C810   1.278       .  A
O806      Cu1152   1.999       .  S
O806        C809   1.276       .  A
Cu807      O1143   2.012   1_554  S
Cu807      O1146   2.002   1_554  S
Cu807      Cu808   2.378       .  S
Cu808      O1147   2.009   1_554  S
Cu808      O1150   1.999   1_554  S
C810        C926   1.465       .  S
C811        C840   1.463       .  S
N813        N814   1.322       .  A
N813        C817   1.344       .  A
N813       Cu821   2.079       .  S
N814        C815   1.345       .  A
N814       Cu820   2.063       .  S
C815        C816   1.381       .  A
C815        H818   1.082       .  S
C816        C817   1.383       .  A
C817        H819   1.082       .  S
Cu820       N823   2.063       .  S
Cu821       N831   2.079       .  S
Cu822       N824   2.079       .  S
Cu822       N830   2.079       .  S
N823        N824   1.323       .  A
N823        C827   1.344       .  A
N824        C825   1.345       .  A
C825        C826   1.383       .  A
C825        H828   1.082       .  S
C826        C827   1.379       .  A
C826        C885   1.464       .  S
C827        H829   1.082       .  S
N830        N831   1.322       .  A
N830        C834   1.346       .  A
N831        C832   1.346       .  A
C832        C833   1.387       .  A
C832        H835   1.082       .  S
C833        C834   1.387       .  A
C833        C975   1.484       .  S
C834        H836   1.082       .  S
N837        N838   1.323       .  A
N837        C841   1.344       .  A
N837       Cu845   2.079       .  S
N838        C839   1.344       .  A
N838       Cu844   2.060       .  S
C839        C840   1.379       .  A
C839        H842   1.082       .  S
C840        C841   1.383       .  A
C841        H843   1.082       .  S
Cu844       N847   2.060       .  S
Cu845       N855   2.079       .  S
Cu846       N848   2.074       .  S
Cu846       N854   2.074       .  S
N847        N848   1.322       .  A
N847        C851   1.344       .  A
N848        C849   1.344       .  A
C849        C850   1.382       .  A
C849        H852   1.082       .  S
C850        C851   1.380       .  A
C850        C871   1.463       .  S
C851        H853   1.082       .  S
N854        N855   1.322       .  A
N854        C858   1.346       .  A
N855        C856   1.346       .  A
C856        C857   1.384       .  A
C856        H859   1.082       .  S
C857        C858   1.383       .  A
C857        C972   1.476       .  S
C858        H860   1.082       .  S
O861       Cu869   1.997       .  S
O861        C871   1.276       .  A
O862       Cu869   2.012       .  S
O862        C872   1.278       .  A
O863       Cu869   2.002       .  S
O863        C873   1.276       .  A
O864       Cu869   2.014       .  S
O864        C874   1.278       .  A
O865       Cu870   2.001       .  S
O865        C874   1.276       .  A
O866       Cu870   2.013       .  S
O866        C873   1.278       .  A
O867       Cu870   1.997       .  S
O867        C872   1.276       .  A
O868       Cu870   2.011       .  S
O868        C871   1.278       .  A
Cu869      Cu870   2.378       .  S
C874        C916   1.465       .  S
O875       Cu883   1.997       .  S
O875        C885   1.275       .  A
O876      Cu1227   2.013       .  S
O876        C886   1.278       .  A
O877      Cu1227   2.000       .  S
O877        C887   1.276       .  A
O878       Cu883   2.014       .  S
O878        C888   1.278       .  A
O879       Cu884   1.999       .  S
O879        C888   1.276       .  A
O880      Cu1228   2.011       .  S
O880        C887   1.278       .  A
O881      Cu1228   2.001       .  S
O881        C886   1.276       .  A
O882       Cu884   2.015       .  S
O882        C885   1.278       .  A
Cu883      O1220   2.013   1_554  S
Cu883      O1221   2.000   1_554  S
Cu883      Cu884   2.378       .  S
Cu884      O1224   2.011   1_554  S
Cu884      O1225   2.001   1_554  S
C888        C892   1.465       .  S
N889        N890   1.322       .  A
N889        C893   1.344       .  A
N889       Cu897   2.071       .  S
N890        C891   1.344       .  A
C891        C892   1.381       .  A
C891        H894   1.082       .  S
C892        C893   1.382       .  A
C893        H895   1.082       .  S
Cu896       N899   2.067   1_545  S
Cu897       N907   2.070       .  S
Cu898       N900   2.070       .  S
Cu898       N906   2.071       .  S
N899        N900   1.322       .  A
N899        C903   1.345       .  A
N900        C901   1.344       .  A
C901        C902   1.382       .  A
C901        H904   1.082       .  S
C902        C903   1.381       .  A
C903        H905   1.082       .  S
N906        C910   1.344       .  A
N907        C908   1.344       .  A
C908        C909   1.382       .  A
C908        H911   1.082       .  S
C909        C951   1.470       .  S
C910        H912   1.082       .  S
N913        N914   1.322       .  A
N913        C917   1.344       .  A
N913       Cu921   2.071       .  S
N914        C915   1.346       .  A
N914       Cu920   2.071       .  S
C915        C916   1.382       .  A
C915        H918   1.082       .  S
C916        C917   1.381       .  A
C917        H919   1.082       .  S
Cu921       N931   2.071       .  S
Cu922       N924   2.072       .  S
N923        N924   1.323       .  A
N923        C927   1.345       .  A
N924        C925   1.345       .  A
C925        C926   1.382       .  A
C925        H928   1.082       .  S
C926        C927   1.381       .  A
C927        H929   1.082       .  S
N930        N931   1.321       .  A
N930        C934   1.344       .  A
N931        C932   1.344       .  A
C932        C933   1.385       .  A
C932        H935   1.082       .  S
C933        C934   1.386       .  A
C933        C948   1.480       .  S
C937        C938   1.399       .  A
C937        C942   1.403       .  A
C937        H953   1.084       .  S
C938        C939   1.404       .  A
C938        H954   1.084       .  S
C939        C949   1.403       .  A
C939        C940   1.411       .  A
C940        C941   1.411       .  A
C941        C942   1.412       .  A
C942        C950   1.402   1_655  A
C943        C952   1.401   1_655  A
C943        C944   1.403       .  A
C944        C945   1.398       .  A
C944        H955   1.084       .  S
C945        C946   1.403       .  A
C945        H956   1.084       .  S
C946        C947   1.401       .  A
C947        H957   1.084       .  S
C948        C949   1.407       .  A
C949        H958   1.084       .  S
C950        C951   1.404       .  A
C950        H959   1.085       .  S
C952        H960   1.085       .  S
C961        C962   1.399       .  A
C961        C966   1.404       .  A
C961        H977   1.084       .  S
C962        C963   1.403       .  A
C962        H978   1.084       .  S
C963        C973   1.404       .  A
C963        C964   1.412       .  A
C964        C970   1.412       .  A
C964        C965   1.413       .  A
C965        C967   1.411       .  A
C965        C966   1.412       .  A
C966        C974   1.404       .  A
C967        C976   1.405       .  A
C967        C968   1.404       .  A
C968        C969   1.400       .  A
C968        H979   1.084       .  S
C969        C970   1.404       .  A
C969        H980   1.084       .  S
C970        C971   1.405       .  A
C971        C972   1.405       .  A
C971        H981   1.085       .  S
C972        C973   1.405       .  A
C973        H982   1.085       .  S
C974        C975   1.407       .  A
C974        H983   1.084       .  S
C975        C976   1.407       .  A
C976        H984   1.084       .  S
C985        C986   1.399       .  A
C985        C990   1.404       .  A
C985       H1001   1.083       .  S
C986        C987   1.403       .  A
C986       H1002   1.083       .  S
C987        C997   1.403       .  A
C987        C988   1.412       .  A
C988        C994   1.412       .  A
C988        C989   1.411       .  A
C989        C991   1.411       .  A
C989        C990   1.411       .  A
C990        C998   1.403       .  A
C991       C1000   1.402       .  A
C991        C992   1.404       .  A
C992        C993   1.398       .  A
C992       H1003   1.083       .  S
C993        C994   1.403       .  A
C993       H1004   1.083       .  S
C994        C995   1.402       .  A
C995        C996   1.403       .  A
C995       H1005   1.084       .  S
C996        C997   1.403       .  A
C997       H1006   1.084       .  S
C998        C999   1.407       .  A
C998       H1007   1.083       .  S
C999       C1000   1.407       .  A
C1000      H1008   1.083       .  S
C1009      C1010   1.398       .  A
C1009      C1014   1.403       .  A
C1009      H1025   1.084       .  S
C1010      C1011   1.403       .  A
C1010      H1026   1.084       .  S
C1011      C1021   1.402       .  A
C1012      C1018   1.412       .  A
C1012      C1013   1.411       .  A
C1013      C1015   1.412       .  A
C1014      C1022   1.402   1_655  A
C1015      C1024   1.403   1_655  A
C1015      C1016   1.403       .  A
C1016      C1017   1.399       .  A
C1016      H1027   1.084       .  S
C1017      C1018   1.403       .  A
C1017      H1028   1.084       .  S
C1018      C1019   1.402       .  A
C1019      C1020   1.404       .  A
C1019      H1029   1.085       .  S
C1021      H1030   1.085       .  S
C1022      H1031   1.085       .  S
C1023      C1024   1.405       .  A
C1024      H1032   1.084       .  S
N1033      N1034   1.323       .  A
N1033      C1037   1.344       .  A
N1033     Cu1041   2.073       .  S
N1034      C1035   1.345       .  A
C1035      C1036   1.381       .  A
C1035      H1038   1.082       .  S
C1036      C1037   1.382       .  A
C1036      C1230   1.465       .  S
C1037      H1039   1.082       .  S
Cu1040     N1043   2.070   1_545  S
Cu1041     N1051   2.073       .  S
Cu1042     N1044   2.073       .  S
Cu1042     N1050   2.073       .  S
N1043      N1044   1.322       .  A
N1043      C1047   1.346       .  A
N1044      C1045   1.344       .  A
C1045      C1046   1.382       .  A
C1045      H1048   1.082       .  S
C1046      C1047   1.382       .  A
C1046      C1092   1.466       .  S
C1047      H1049   1.082       .  S
N1050      C1054   1.344       .  A
N1051      C1052   1.345       .  A
C1052      C1053   1.385       .  A
C1052      H1055   1.082       .  S
C1053      C1367   1.477       .  S
C1054      H1056   1.082       .  S
N1057      N1058   1.322       .  A
N1057      C1061   1.344       .  A
N1057     Cu1065   2.070       .  S
N1058      C1059   1.344       .  A
C1059      C1060   1.381       .  A
C1059      H1062   1.082       .  S
C1060      C1061   1.381       .  A
C1060      C1156   1.464       .  S
C1061      H1063   1.082       .  S
Cu1064     N1067   2.068       .  S
Cu1066     N1068   2.070       .  S
Cu1066     N1074   2.070       .  S
N1067      N1068   1.322       .  A
N1067      C1071   1.345       .  A
N1068      C1069   1.343       .  A
C1069      C1070   1.381       .  A
C1069      H1072   1.082       .  S
C1070      C1071   1.381       .  A
C1070      C1216   1.463       .  S
C1071      H1073   1.082       .  S
N1074      N1075   1.322       .  A
N1074      C1078   1.345       .  A
N1075      C1076   1.344       .  A
C1076      C1077   1.383       .  A
C1077      C1078   1.383       .  A
C1077      C1364   1.474       .  S
C1078      H1080   1.082       .  S
O1081     Cu1089   1.998       .  S
O1081      C1091   1.276       .  A
O1082     Cu1089   2.015       .  S
O1082      C1092   1.278       .  A
O1083     Cu1089   2.000       .  S
O1083      C1093   1.276       .  A
O1084     Cu1089   2.013       .  S
O1084      C1094   1.278       .  A
O1085     Cu1090   1.999       .  S
O1085      C1094   1.276       .  A
O1086     Cu1090   2.011       .  S
O1086      C1093   1.278       .  A
O1087     Cu1090   2.003       .  S
O1087      C1092   1.277       .  A
O1088     Cu1090   2.016       .  S
O1088      C1091   1.279       .  A
Cu1089    Cu1090   2.378       .  S
C1091      C1160   1.465       .  S
C1093      C1098   1.464       .  S
C1094      C1246   1.464       .  S
N1095      N1096   1.322       .  A
N1095      C1099   1.344       .  A
N1095     Cu1103   2.073       .  S
N1096      C1097   1.345       .  A
N1096     Cu1102   2.067       .  S
C1097      C1098   1.381       .  A
C1097      H1100   1.082       .  S
C1098      C1099   1.382       .  A
C1099      H1101   1.082       .  S
Cu1102     N1105   2.067       .  S
Cu1103     N1113   2.073       .  S
Cu1104     N1106   2.072       .  S
Cu1104     N1112   2.072       .  S
N1105      N1106   1.322       .  A
N1105      C1109   1.345       .  A
N1106      C1107   1.344       .  A
C1107      C1108   1.381       .  A
C1107      H1110   1.082       .  S
C1108      C1109   1.380       .  A
C1108      C1231   1.463       .  S
C1109      H1111   1.082       .  S
N1112      N1113   1.323       .  A
N1112      C1116   1.345       .  A
N1113      C1114   1.345       .  A
C1114      C1115   1.382       .  A
C1114      H1117   1.082       .  S
C1115      C1116   1.381       .  A
C1115      C1340   1.470       .  S
C1116      H1118   1.082       .  S
N1119      N1120   1.322       .  A
N1119      C1123   1.344       .  A
N1119     Cu1127   2.072       .  S
N1120      C1121   1.345       .  A
N1120     Cu1126   2.069       .  S
C1121      C1122   1.381       .  A
C1121      H1124   1.082       .  S
C1122      C1123   1.382       .  A
C1122      C1217   1.465       .  S
C1123      H1125   1.082       .  S
Cu1126     N1129   2.069       .  S
Cu1127     N1137   2.072       .  S
Cu1128     N1130   2.071       .  S
Cu1128     N1136   2.071       .  S
N1129      N1130   1.323       .  A
N1129      C1133   1.345       .  A
N1130      C1131   1.344       .  A
C1131      C1132   1.381       .  A
C1131      H1134   1.082       .  S
C1132      C1133   1.381       .  A
C1132      C1153   1.463       .  S
C1133      H1135   1.082       .  S
N1136      N1137   1.321       .  A
N1136      C1140   1.344       .  A
N1137      C1138   1.344       .  A
C1138      C1139   1.386       .  A
C1138      H1141   1.082       .  S
C1139      C1140   1.387       .  A
C1139      C1343   1.482       .  S
C1140      H1142   1.081       .  S
O1143      C1153   1.278       .  A
O1144     Cu1151   2.002       .  S
O1144      C1154   1.276       .  A
O1145     Cu1151   2.015       .  S
O1145      C1155   1.279       .  A
O1146      C1156   1.276       .  A
O1147      C1156   1.277       .  A
O1148     Cu1152   1.994       .  S
O1148      C1155   1.275       .  A
O1149     Cu1152   2.012       .  S
O1149      C1154   1.278       .  A
O1150      C1153   1.276       .  A
Cu1151    Cu1152   2.378       .  S
C1154      C1270   1.465       .  S
C1155      C1184   1.463       .  S
N1157      N1158   1.322       .  A
N1157      C1161   1.344       .  A
N1157     Cu1165   2.079       .  S
N1158      C1159   1.345       .  A
N1158     Cu1164   2.063       .  S
C1159      C1160   1.381       .  A
C1159      H1162   1.082       .  S
C1160      C1161   1.383       .  A
C1161      H1163   1.082       .  S
Cu1164     N1167   2.063       .  S
Cu1165     N1175   2.079       .  S
Cu1166     N1168   2.079       .  S
Cu1166     N1174   2.079       .  S
N1167      N1168   1.323       .  A
N1167      C1171   1.344       .  A
N1168      C1169   1.345       .  A
C1169      C1170   1.383       .  A
C1169      H1172   1.082       .  S
C1170      C1171   1.379       .  A
C1170      C1229   1.464       .  S
C1171      H1173   1.082       .  S
N1174      N1175   1.322       .  A
N1174      C1178   1.346       .  A
N1175      C1176   1.346       .  A
C1176      C1177   1.387       .  A
C1176      H1179   1.082       .  S
C1177      C1178   1.387       .  A
C1177      C1319   1.484       .  S
C1178      H1180   1.082       .  S
N1181      N1182   1.323       .  A
N1181      C1185   1.344       .  A
N1181     Cu1189   2.079       .  S
N1182      C1183   1.344       .  A
N1182     Cu1188   2.060       .  S
C1183      C1184   1.379       .  A
C1183      H1186   1.082       .  S
C1184      C1185   1.383       .  A
C1185      H1187   1.082       .  S
Cu1188     N1191   2.060       .  S
Cu1189     N1199   2.079       .  S
Cu1190     N1192   2.074       .  S
Cu1190     N1198   2.074       .  S
N1191      N1192   1.322       .  A
N1191      C1195   1.344       .  A
N1192      C1193   1.344       .  A
C1193      C1194   1.382       .  A
C1193      H1196   1.082       .  S
C1194      C1195   1.380       .  A
C1194      C1215   1.463       .  S
C1195      H1197   1.082       .  S
N1198      N1199   1.322       .  A
N1198      C1202   1.346       .  A
N1199      C1200   1.346       .  A
C1200      C1201   1.384       .  A
C1200      H1203   1.082       .  S
C1201      C1202   1.383       .  A
C1201      C1316   1.476       .  S
C1202      H1204   1.082       .  S
O1205     Cu1213   1.997       .  S
O1205      C1215   1.276       .  A
O1206     Cu1213   2.012       .  S
O1206      C1216   1.278       .  A
O1207     Cu1213   2.002       .  S
O1207      C1217   1.276       .  A
O1208     Cu1213   2.014       .  S
O1208      C1218   1.278       .  A
O1209     Cu1214   2.001       .  S
O1209      C1218   1.276       .  A
O1210     Cu1214   2.013       .  S
O1210      C1217   1.278       .  A
O1211     Cu1214   1.997       .  S
O1211      C1216   1.276       .  A
O1212     Cu1214   2.011       .  S
O1212      C1215   1.278       .  A
Cu1213    Cu1214   2.378       .  S
C1218      C1260   1.465       .  S
O1219     Cu1227   1.997       .  S
O1219      C1229   1.275       .  A
O1220      C1230   1.278       .  A
O1221      C1231   1.276       .  A
O1222     Cu1227   2.014       .  S
O1222      C1232   1.278       .  A
O1223     Cu1228   1.999       .  S
O1223      C1232   1.276       .  A
O1224      C1231   1.278       .  A
O1225      C1230   1.276       .  A
O1226     Cu1228   2.015       .  S
O1226      C1229   1.278       .  A
Cu1227    Cu1228   2.378       .  S
C1232      C1236   1.465       .  S
N1233      N1234   1.322       .  A
N1233      C1237   1.344       .  A
N1233     Cu1241   2.071       .  S
N1234      C1235   1.344       .  A
C1235      C1236   1.381       .  A
C1235      H1238   1.082       .  S
C1236      C1237   1.382       .  A
C1237      H1239   1.082       .  S
Cu1240     N1243   2.067   1_545  S
Cu1241     N1251   2.070       .  S
Cu1242     N1244   2.070       .  S
Cu1242     N1250   2.071       .  S
N1243      N1244   1.322       .  A
N1243      C1247   1.345       .  A
N1244      C1245   1.344       .  A
C1245      C1246   1.382       .  A
C1245      H1248   1.082       .  S
C1246      C1247   1.381       .  A
C1247      H1249   1.082       .  S
N1250      C1254   1.344       .  A
N1251      C1252   1.344       .  A
C1252      C1253   1.382       .  A
C1252      H1255   1.082       .  S
C1253      C1295   1.470       .  S
C1254      H1256   1.082       .  S
N1257      N1258   1.322       .  A
N1257      C1261   1.344       .  A
N1257     Cu1265   2.071       .  S
N1258      C1259   1.346       .  A
N1258     Cu1264   2.071       .  S
C1259      C1260   1.382       .  A
C1259      H1262   1.082       .  S
C1260      C1261   1.381       .  A
C1261      H1263   1.082       .  S
Cu1265     N1275   2.071       .  S
Cu1266     N1268   2.072       .  S
N1267      N1268   1.323       .  A
N1267      C1271   1.345       .  A
N1268      C1269   1.345       .  A
C1269      C1270   1.382       .  A
C1269      H1272   1.082       .  S
C1270      C1271   1.381       .  A
C1271      H1273   1.082       .  S
N1274      N1275   1.321       .  A
N1274      C1278   1.344       .  A
N1275      C1276   1.344       .  A
C1276      C1277   1.385       .  A
C1276      H1279   1.082       .  S
C1277      C1278   1.386       .  A
C1277      C1292   1.480       .  S
C1281      C1282   1.399       .  A
C1281      C1286   1.403       .  A
C1281      H1297   1.084       .  S
C1282      C1283   1.404       .  A
C1282      H1298   1.084       .  S
C1283      C1293   1.403       .  A
C1283      C1284   1.411       .  A
C1284      C1285   1.411       .  A
C1285      C1286   1.412       .  A
C1286      C1294   1.402   1_655  A
C1287      C1296   1.401   1_655  A
C1287      C1288   1.403       .  A
C1288      C1289   1.398       .  A
C1288      H1299   1.084       .  S
C1289      C1290   1.403       .  A
C1289      H1300   1.084       .  S
C1290      C1291   1.401       .  A
C1291      H1301   1.084       .  S
C1292      C1293   1.407       .  A
C1293      H1302   1.084       .  S
C1294      C1295   1.404       .  A
C1294      H1303   1.085       .  S
C1296      H1304   1.085       .  S
C1305      C1306   1.399       .  A
C1305      C1310   1.404       .  A
C1305      H1321   1.084       .  S
C1306      C1307   1.403       .  A
C1306      H1322   1.084       .  S
C1307      C1317   1.404       .  A
C1307      C1308   1.412       .  A
C1308      C1314   1.412       .  A
C1308      C1309   1.413       .  A
C1309      C1311   1.411       .  A
C1309      C1310   1.412       .  A
C1310      C1318   1.404       .  A
C1311      C1320   1.405       .  A
C1311      C1312   1.404       .  A
C1312      C1313   1.400       .  A
C1312      H1323   1.084       .  S
C1313      C1314   1.404       .  A
C1313      H1324   1.084       .  S
C1314      C1315   1.405       .  A
C1315      C1316   1.405       .  A
C1315      H1325   1.085       .  S
C1316      C1317   1.404       .  A
C1317      H1326   1.085       .  S
C1318      C1319   1.407       .  A
C1318      H1327   1.084       .  S
C1319      C1320   1.407       .  A
C1320      H1328   1.084       .  S
C1329      C1330   1.399       .  A
C1329      C1334   1.404       .  A
C1329      H1345   1.083       .  S
C1330      C1331   1.403       .  A
C1330      H1346   1.083       .  S
C1331      C1341   1.403       .  A
C1331      C1332   1.412       .  A
C1332      C1338   1.412       .  A
C1332      C1333   1.411       .  A
C1333      C1335   1.411       .  A
C1333      C1334   1.411       .  A
C1334      C1342   1.403       .  A
C1335      C1344   1.402       .  A
C1335      C1336   1.404       .  A
C1336      C1337   1.398       .  A
C1336      H1347   1.083       .  S
C1337      C1338   1.403       .  A
C1337      H1348   1.083       .  S
C1338      C1339   1.402       .  A
C1339      C1340   1.403       .  A
C1339      H1349   1.084       .  S
C1340      C1341   1.403       .  A
C1341      H1350   1.084       .  S
C1342      C1343   1.407       .  A
C1342      H1351   1.083       .  S
C1343      C1344   1.407       .  A
C1344      H1352   1.083       .  S
C1353      C1354   1.398       .  A
C1353      C1358   1.403       .  A
C1353      H1369   1.084       .  S
C1354      C1355   1.403       .  A
C1354      H1370   1.084       .  S
C1355      C1365   1.402       .  A
C1356      C1362   1.412       .  A
C1356      C1357   1.411       .  A
C1357      C1359   1.412       .  A
C1358      C1366   1.402   1_655  A
C1359      C1368   1.403   1_655  A
C1359      C1360   1.403       .  A
C1360      C1361   1.399       .  A
C1360      H1371   1.084       .  S
C1361      C1362   1.403       .  A
C1361      H1372   1.084       .  S
C1362      C1363   1.402       .  A
C1363      C1364   1.404       .  A
C1363      H1373   1.085       .  S
C1365      H1374   1.085       .  S
C1366      H1375   1.085       .  S
C1367      C1368   1.405       .  A
C1368      H1376   1.085       .  S
