geometry optimzed in LAMMPS
_audit_creation_date              2020-11-30 
_audit_creation_method            'lammps2cif' 
_symmetry_space_group_name_H-M    'P1' 
_symmetry_Int_Tables_number       1 
_symmetry_cell_setting            triclinic 
loop_ 
_symmetry_equiv_pos_as_xyz 
  x,y,z 
_cell_length_a                    72.52828115 
_cell_length_b                    71.74518609357082 
_cell_length_c                    47.826125792128 
_cell_angle_alpha                 90.14433472141386 
_cell_angle_beta                  89.89773428053788 
_cell_angle_gamma                 120.40312447352228 
loop_ 
_atom_site_label 
_atom_site_type_symbol 
_atom_site_fract_x 
_atom_site_fract_y 
_atom_site_fract_z 
_atom_site_charge 
Fe1        Fe  0.15781617  0.48763892  0.20304648     1.65800
Fe2        Fe  0.11874025  0.44242647  0.17118672     1.73200
Fe3        Fe  0.11197738  0.45486412  0.23795330     1.54400
O4          O  0.13852781  0.46208842  0.26352121    -0.82000
O5          O  0.08970395  0.44000990  0.17282752    -0.80300
O6          O  0.16756558  0.47662849  0.23613421    -0.84500
O7          O  0.15036253  0.50589020  0.22952896    -0.79300
O8          O  0.10561473  0.42388749  0.23856131    -0.81100
O9          O  0.12738878  0.46923663  0.14469175    -0.83900
C10         C  0.13334343  0.50342004  0.24046155     0.96900
C11         C  0.15815980  0.46795681  0.25898825     1.04300
O12         O  0.12941791  0.46147559  0.20403599    -1.12800
O13         O  0.14653435  0.44224733  0.16455278    -0.75300
O14         O  0.17154477  0.47529206  0.17644744    -0.78800
O15         O  0.11638667  0.48524206  0.24116362    -0.79400
C16         C  0.16581701  0.45722578  0.16506210     0.95800
O17         O  0.14833304  0.49886306  0.17009772    -0.77400
O18         O  0.10859983  0.41416489  0.19520761    -0.82600
C19         C  0.07813094  0.44213190  0.19074198     0.98400
C20         C  0.10505715  0.41022041  0.22134678     1.04400
O21         O  0.08358932  0.44661139  0.21628500    -0.78200
C22         C  0.13675708  0.48972528  0.14875372     1.02700
Fe23       Fe  0.99907118  0.16502076  0.37673178     1.65800
Fe24       Fe  0.00749050  0.21078054  0.40904186     1.73200
Fe25       Fe  0.98860367  0.19979120  0.34229132     1.54400
O26         O  0.00656386  0.19073375  0.31636320    -0.82000
O27         O  0.98142865  0.21412886  0.40835372    -0.80300
O28         O  0.02021134  0.17559858  0.34400621    -0.84500
O29         O  0.97336085  0.14820867  0.34984514    -0.79300
O30         O  0.01460775  0.23001789  0.34162902    -0.81100
O31         O  0.98916935  0.18392609  0.43553042    -0.83900
C32         C  0.95910899  0.15154587  0.33986138     0.96900
C33         C  0.01985045  0.18426282  0.32101436     1.04300
O34         O  0.99839094  0.19202197  0.37605774    -1.12800
O35         O  0.03502317  0.20990233  0.41391624    -0.75300
O36         O  0.02477006  0.17595554  0.40378388    -0.78800
O37         O  0.96131719  0.17017264  0.33948646    -0.79400
C38         C  0.03811732  0.19411773  0.41414561     0.95800
O39         O  0.97805973  0.15408903  0.40953080    -0.77400
O40         O  0.02584114  0.23933434  0.38555815    -0.82600
C41         C  0.96893508  0.21423452  0.39014026     0.98400
C42         C  0.02709867  0.24357040  0.35943006     1.04400
O43         O  0.97019026  0.21035766  0.36433424    -0.78200
C44         C  0.97704156  0.16352025  0.43154238     1.02700
Fe45       Fe  0.83959241  0.33027212  0.04159189     1.65800
Fe46       Fe  0.87787120  0.32299094  0.07252611     1.73200
Fe47       Fe  0.88384601  0.34017806  0.00475217     1.54400
O48         O  0.85614327  0.31962036  0.48115047    -0.82000
O49         O  0.90743355  0.34948799  0.06929029    -0.80300
O50         O  0.82787489  0.30950367  0.00823434    -0.84500
O51         O  0.84848299  0.35668210  0.01567625    -0.79300
O52         O  0.88900047  0.31490663  0.00528787    -0.81100
O53         O  0.87075338  0.34203567  0.09922324    -0.83900
C54         C  0.86510687  0.36905785  0.50349447     0.96900
C55         C  0.83608858  0.30760851  0.48582924     1.04300
O56         O  0.86714011  0.33107452  0.03960651    -1.12800
O57         O  0.84942498  0.29544691  0.08051572    -0.75300
O58         O  0.82506939  0.30374301  0.06796545    -0.78800
O59         O  0.88072734  0.36605129  0.50094228    -0.79400
C60         C  0.83034334  0.29142846  0.08006561     0.95800
O61         O  0.85013733  0.35107535  0.07487837    -0.77400
O62         O  0.88669430  0.30360868  0.04915163    -0.82600
C63         C  0.91898430  0.36249779  0.05049567     0.98400
C64         C  0.88975754  0.30232993  0.02306221     1.04400
O65         O  0.91299695  0.36077659  0.02510076    -0.78200
C66         C  0.86150605  0.35309926  0.09612491     1.02700
Fe67       Fe  0.83703886  0.50546447  0.29188164     1.65800
Fe68       Fe  0.86595756  0.55984703  0.29175993     1.73200
Fe69       Fe  0.89084635  0.53056072  0.29245660     1.54400
O70         O  0.87785690  0.50406028  0.31943120    -0.82000
O71         O  0.88533620  0.56968754  0.25707768    -0.80300
O72         O  0.84422517  0.49538962  0.32810854    -0.84500
O73         O  0.84757673  0.48836450  0.26803070    -0.79300
O74         O  0.90195631  0.55016934  0.32691369    -0.81100
O75         O  0.83979116  0.54883428  0.26461489    -0.83900
C76         C  0.86440496  0.49268479  0.25451538     0.96900
C77         C  0.86060060  0.49398591  0.33352350     1.04300
O78         O  0.86470522  0.53203013  0.29198181    -1.12800
O79         O  0.84630669  0.55201785  0.32666549    -0.75300
O80         O  0.82188741  0.51826904  0.31550333    -0.78800
O81         O  0.88187290  0.51037047  0.25793907    -0.79400
C82         C  0.82779977  0.53546197  0.32954238     0.95800
O83         O  0.82855636  0.51419602  0.25569660    -0.77400
O84         O  0.89316647  0.57504770  0.31751972    -0.82600
C85         C  0.90293682  0.57021868  0.25359266     0.98400
C86         C  0.90484214  0.56902528  0.32992651     1.04400
O87         O  0.90758321  0.55758420  0.26646737    -0.78200
C88         C  0.82889682  0.53165019  0.25021788     1.02700
Fe89       Fe  0.15084250  0.66021709  0.45770510     1.65800
Fe90       Fe  0.12469729  0.68789902  0.45206961     1.73200
Fe91       Fe  0.09674512  0.63292079  0.45633570     1.54400
O92         O  0.10802084  0.61714139  0.43130754    -0.82000
O93         O  0.10509678  0.68073007  0.48605610    -0.80300
O94         O  0.14277600  0.63972921  0.42394260    -0.84500
O95         O  0.13900986  0.63454028  0.48524647    -0.79300
O96         O  0.08650750  0.64051515  0.42055651    -0.81100
O97         O  0.15057639  0.70399472  0.47913017    -0.83900
C98         C  0.12216199  0.62393711  0.00120721     0.96900
C99         C  0.12538452  0.62245752  0.41846914     1.04300
O100        O  0.12402890  0.66030924  0.45535632    -1.12800
O101        O  0.14500404  0.69772803  0.41784726    -0.75300
O102        O  0.16685629  0.68593830  0.43049110    -0.78800
O103        O  0.10433944  0.62201525  0.49212378    -0.79400
C104        C  0.16241169  0.69763630  0.41528494     0.95800
O105        O  0.16062364  0.68060183  0.49170111    -0.77400
O106        O  0.09803235  0.67559575  0.42557088    -0.82600
C107        C  0.08735479  0.66393467  0.49153843     0.98400
C108        C  0.08557037  0.65721033  0.41461852     1.04400
O109        O  0.08162464  0.64552534  0.48076893    -0.78200
C110        C  0.16097290  0.69833584  0.49497359     1.02700
Fe111      Fe  0.99355040  0.81472082  0.12901772     1.65800
Fe112      Fe  0.02164128  0.78908003  0.12483057     1.73200
Fe113      Fe  0.96745748  0.76041169  0.12415046     1.54400
O114        O  0.95231790  0.77029603  0.15253856    -0.82000
O115        O  0.01348415  0.77105090  0.08888889    -0.80300
O116        O  0.97597836  0.80408989  0.16511633    -0.84500
O117        O  0.96558800  0.80315351  0.10539213    -0.79300
O118        O  0.97625160  0.74852611  0.15739723    -0.81100
O119        O  0.03558097  0.81668250  0.09982858    -0.83900
C120        C  0.95404577  0.78668364  0.09016321     0.96900
C121        C  0.95857806  0.78643393  0.16890106     1.04300
O122        O  0.99424958  0.78800283  0.12593620    -1.12800
O123        O  0.03254463  0.80760096  0.16089082    -0.75300
O124        O  0.02134428  0.83075785  0.15311617    -0.78800
O125        O  0.95610386  0.77010561  0.09067579    -0.79400
C126        C  0.03356087  0.82554292  0.16560629     0.95800
O127        O  0.01120608  0.82649127  0.09313459    -0.77400
O128        O  0.01074691  0.76082523  0.14849955    -0.82600
C129        C  0.99720741  0.75261348  0.08444975     0.98400
C130        C  0.99314954  0.74761638  0.16038923     1.04400
O131        O  0.97940308  0.74637308  0.09666287    -0.78200
C132        C  0.02877690  0.82758949  0.08697370     1.02700
Fe133      Fe  0.33067383  0.83200045  0.20773124     1.65800
Fe134      Fe  0.32307088  0.86854867  0.17267868     1.73200
Fe135      Fe  0.33918006  0.87746498  0.24088459     1.54400
O136        O  0.32029323  0.85036385  0.26630256    -0.82000
O137        O  0.34896860  0.89874334  0.17456448    -0.80300
O138        O  0.30872703  0.82105407  0.23924963    -0.84500
O139        O  0.35554042  0.84213294  0.23592180    -0.79300
O140        O  0.31304514  0.88068811  0.23864548    -0.81100
O141        O  0.34254965  0.86061307  0.14820400    -0.83900
C142        C  0.36899172  0.85997755  0.24695805     0.96900
C143        C  0.30773464  0.83020243  0.26150816     1.04300
O144        O  0.33096963  0.85947686  0.20707013    -1.12800
O145        O  0.29601078  0.83929855  0.16649309    -0.75300
O146        O  0.30567153  0.81597511  0.17970322    -0.78800
O147        O  0.36640240  0.87610670  0.24696462    -0.79400
C148        C  0.29273747  0.82029289  0.16767962     0.95800
O149        O  0.35277015  0.84262015  0.17640272    -0.77400
O150        O  0.30337914  0.87787481  0.19389799    -0.82600
C151        C  0.36066908  0.91162110  0.19342165     0.98400
C152        C  0.30098207  0.88079719  0.21972349     1.04400
O153        O  0.35833063  0.90658186  0.21926108    -0.78200
C154        C  0.35476634  0.85306339  0.15410601     1.02700
Fe155      Fe  0.17156910  0.99374157  0.37327322     1.65800
Fe156      Fe  0.21598645  0.00434625  0.33762253     1.73200
Fe157      Fe  0.20863961  0.98580799  0.40473719     1.54400
O158        O  0.20048498  0.00440105  0.43133429    -0.82000
O159        O  0.21981149  0.97822369  0.33702256    -0.80300
O160        O  0.18266663  0.01593318  0.40502071    -0.84500
O161        O  0.15717714  0.96887095  0.40192778    -0.79300
O162        O  0.23823013  0.01235326  0.40320797    -0.81100
O163        O  0.18836930  0.98572072  0.31261221    -0.83900
C164        C  0.16147673  0.95522624  0.41200682     0.96900
C165        C  0.19265268  0.01674891  0.42728729     1.04300
O166        O  0.19896565  0.99468891  0.37193472    -1.12800
O167        O  0.21395808  0.03175729  0.33445568    -0.75300
O168        O  0.17986845  0.01849341  0.34473062    -0.78800
O169        O  0.17998605  0.95779346  0.41039057    -0.79400
C170        C  0.19719742  0.03298800  0.33392817     0.95800
O171        O  0.16033050  0.97133113  0.34179680    -0.77400
O172        O  0.24527868  0.02335380  0.35891941    -0.82600
C173        C  0.22075224  0.96568987  0.35474148     0.98400
C174        C  0.25064495  0.02489720  0.38462357     1.04400
O175        O  0.21821286  0.96716880  0.38097719    -0.78200
C176        C  0.16878882  0.97186043  0.31828733     1.02700
Fe177      Fe  0.48977815  0.15343911  0.03679282     1.65800
Fe178      Fe  0.44394302  0.12066123  0.07298283     1.73200
Fe179      Fe  0.44987810  0.10801831  0.00579515     1.54400
O180        O  0.46145503  0.13682808  0.47905401    -0.82000
O181        O  0.43633475  0.08927060  0.07263096    -0.80300
O182        O  0.48141835  0.16428917  0.00223391    -0.84500
O183        O  0.50335087  0.13985279  0.01229187    -0.79300
O184        O  0.42069887  0.10504797  0.00879342    -0.81100
O185        O  0.47038634  0.12624125  0.09786487    -0.83900
C186        C  0.49966579  0.12433891  0.49884759     0.96900
C187        C  0.47189283  0.15737757  0.48244169     1.04300
O188        O  0.46112000  0.12736653  0.03849732    -1.12800
O189        O  0.44970272  0.15149936  0.07830857    -0.75300
O190        O  0.48227414  0.17243105  0.06131887    -0.78800
O191        O  0.48028135  0.10972962  0.49816095    -0.79400
C192        C  0.46618173  0.16986928  0.07494458     0.95800
O193        O  0.49950416  0.14369790  0.07099755    -0.77400
O194        O  0.41555045  0.11365222  0.05164153    -0.82600
C195        C  0.43657267  0.07591534  0.05559779     0.98400
C196        C  0.40946146  0.10795348  0.02643562     1.04400
O197        O  0.44070216  0.08006098  0.02966228    -0.78200
C198        C  0.49034630  0.13374701  0.09331970     1.02700
Fe199      Fe  0.81961035  0.99418054  0.12978788     1.65800
Fe200      Fe  0.79312964  0.02144454  0.12393762     1.73200
Fe201      Fe  0.76586909  0.96667084  0.13051832     1.54400
O202        O  0.77751366  0.95031941  0.10685273    -0.82000
O203        O  0.77308331  0.01480066  0.15746299    -0.80300
O204        O  0.81127582  0.97410995  0.09562463    -0.84500
O205        O  0.80802348  0.96807166  0.15660028    -0.79300
O206        O  0.75526991  0.97288668  0.09408191    -0.81100
O207        O  0.81870452  0.03752246  0.15170919    -0.83900
C208        C  0.79130405  0.95697446  0.17114913     0.96900
C209        C  0.79426276  0.95601995  0.09223949     1.04300
O210        O  0.79277261  0.99414594  0.12806693    -1.12800
O211        O  0.81365600  0.03123192  0.08969469    -0.75300
O212        O  0.83580974  0.02019278  0.10324372    -0.78800
O213        O  0.77441255  0.95781310  0.16729009    -0.79400
C214        C  0.83123582  0.03145968  0.08745775     0.95800
O215        O  0.82897319  0.01414346  0.16399449    -0.77400
O216        O  0.76661362  0.00815415  0.09707660    -0.82600
C217        C  0.75519413  0.99813830  0.16280865     0.98400
C218        C  0.75422313  0.98935257  0.08704384     1.04400
O219        O  0.75010692  0.97949105  0.15340404    -0.78200
C220        C  0.82884595  0.03160676  0.16776203     1.02700
Fe221      Fe  0.50625645  0.83832916  0.45409993     1.65800
Fe222      Fe  0.56002084  0.86434927  0.45290359     1.73200
Fe223      Fe  0.53404774  0.89233036  0.46140955     1.54400
O224        O  0.50792586  0.88261559  0.43487816    -0.82000
O225        O  0.57244183  0.88245178  0.48838346    -0.80300
O226        O  0.49796163  0.84936229  0.41962319    -0.84500
O227        O  0.49026079  0.84910658  0.47962148    -0.79300
O228        O  0.55361354  0.90594226  0.42746027    -0.81100
O229        O  0.54784499  0.83672761  0.47826756    -0.83900
C230        C  0.49558639  0.86458045  0.99486528     0.96900
C231        C  0.49766304  0.86690104  0.41793865     1.04300
O232        O  0.53365073  0.86517241  0.45610709    -1.12800
O233        O  0.55032424  0.84587529  0.41665317    -0.75300
O234        O  0.51693906  0.82220321  0.42841587    -0.78800
O235        O  0.51422973  0.88121715  0.49619354    -0.79400
C236        C  0.53352414  0.82753948  0.41383512     0.95800
O237        O  0.51406438  0.82705530  0.48857091    -0.77400
O238        O  0.57557219  0.89266116  0.42868769    -0.82600
C239        C  0.57383233  0.90007282  0.49592464     0.98400
C240        C  0.57083743  0.90664547  0.42039467     1.04400
O241        O  0.56091466  0.90591247  0.48731564    -0.78200
C242        C  0.53088125  0.82616557  0.49296159     1.02700
Fe243      Fe  0.66224021  0.15338141  0.28776206     1.65800
Fe244      Fe  0.63545853  0.09871090  0.28668355     1.73200
Fe245      Fe  0.69006787  0.12732178  0.29038391     1.54400
O246        O  0.70477540  0.15338584  0.26269087    -0.82000
O247        O  0.64342356  0.08738289  0.32110105    -0.80300
O248        O  0.68110997  0.16358299  0.25295158    -0.84500
O249        O  0.68863589  0.16991057  0.31356013    -0.79300
O250        O  0.68258751  0.10724922  0.25651734    -0.81100
O251        O  0.62031911  0.10959675  0.31375240    -0.83900
C252        C  0.70081204  0.16566036  0.32779248     0.96900
C253        C  0.69849792  0.16399248  0.24808141     1.04300
O254        O  0.66257533  0.12633855  0.28827326    -1.12800
O255        O  0.62412788  0.10732405  0.25198646    -0.75300
O256        O  0.63585829  0.14177634  0.26193440    -0.78800
O257        O  0.70077002  0.14804263  0.32465127    -0.79400
C258        C  0.62386131  0.12471653  0.24815133     0.95800
O259        O  0.64323747  0.14449736  0.32238504    -0.77400
O260        O  0.64758391  0.08384191  0.26056481    -0.82600
C261        C  0.66034695  0.08741856  0.32775482     0.98400
C262        C  0.66593538  0.08953545  0.25031396     1.04400
O263        O  0.67857495  0.10059393  0.31728546    -0.78200
C264        C  0.62612877  0.12692106  0.32756706     1.02700
Fe265      Fe  0.48457734  0.32658145  0.29301321     1.65800
Fe266      Fe  0.45856625  0.35435068  0.29018448     1.73200
Fe267      Fe  0.43108227  0.29975799  0.28925437     1.54400
O268        O  0.44390707  0.28492125  0.26525110    -0.82000
O269        O  0.43751504  0.34532498  0.32321877    -0.80300
O270        O  0.47776794  0.30957968  0.25602195    -0.84500
O271        O  0.47105119  0.29790065  0.31557367    -0.79300
O272        O  0.42316791  0.30888551  0.25284678    -0.81100
O273        O  0.48351165  0.36828919  0.31914369    -0.83900
C274        C  0.45364522  0.28608509  0.32864964     0.96900
C275        C  0.46093616  0.29163823  0.25095234     1.04300
O276        O  0.45802738  0.32696785  0.29091625    -1.12800
O277        O  0.48010706  0.36608384  0.25706366    -0.75300
O278        O  0.50234309  0.35520375  0.27093740    -0.78800
O279        O  0.43748012  0.28835456  0.32552612    -0.79400
C280        C  0.49834303  0.36757264  0.25644972     0.95800
O281        O  0.49236108  0.34354827  0.32995764    -0.77400
O282        O  0.43275325  0.34309702  0.26212347    -0.82600
C283        C  0.41885506  0.32889934  0.32406196     0.98400
C284        C  0.42143904  0.32539839  0.24886682     1.04400
O285        O  0.41408312  0.31128420  0.31167853    -0.78200
C286        C  0.49293831  0.36127231  0.33476838     1.02700
Fe287      Fe  0.17491380  0.17216101  0.12547617     1.65800
Fe288      Fe  0.22851166  0.19971042  0.11776032     1.73200
Fe289      Fe  0.20113076  0.22661558  0.12421909     1.54400
O290        O  0.17376592  0.21396571  0.09906840    -0.82000
O291        O  0.24225402  0.22067668  0.15051934    -0.80300
O292        O  0.16321738  0.17928994  0.09087997    -0.84500
O293        O  0.15962353  0.18379038  0.15093285    -0.79300
O294        O  0.21899634  0.23818691  0.08855032    -0.81100
O295        O  0.21914146  0.17444409  0.14627129    -0.83900
C296        C  0.16500195  0.20107476  0.16438981     0.96900
C297        C  0.16257593  0.19630235  0.08564552     1.04300
O298        O  0.20167287  0.19966604  0.12237525    -1.12800
O299        O  0.21736904  0.17811860  0.08434918    -0.75300
O300        O  0.18477607  0.15528236  0.10007229    -0.78800
O301        O  0.18298353  0.21803816  0.16053169    -0.79400
C302        C  0.20032096  0.15975755  0.08376246     0.95800
O303        O  0.18595601  0.16423344  0.16029945    -0.77400
O304        O  0.24183711  0.22605709  0.09006906    -0.82600
C305        C  0.24280023  0.23808006  0.15714082     0.98400
C306        C  0.23625814  0.23920951  0.08102117     1.04400
O307        O  0.22905618  0.24277973  0.14832164    -0.78200
C308        C  0.20345061  0.16435779  0.16308258     1.02700
Fe309      Fe  0.32598915  0.48460490  0.45218844     1.65800
Fe310      Fe  0.35484036  0.45950558  0.45149511     1.73200
Fe311      Fe  0.30079850  0.43057179  0.45618468     1.54400
O312        O  0.28588443  0.44273369  0.48174516    -0.82000
O313        O  0.34491808  0.43826906  0.41828545    -0.80300
O314        O  0.30982897  0.47732053  0.48924904    -0.84500
O315        O  0.29730800  0.47051219  0.42974284    -0.79300
O316        O  0.31169044  0.42327661  0.49161519    -0.81100
O317        O  0.36740764  0.48489212  0.42252022    -0.83900
C318        C  0.28580447  0.45269233  0.41692641     0.96900
C319        C  0.29245460  0.46031684  0.49523775     1.04300
O320        O  0.32729874  0.45822944  0.45324294    -1.12800
O321        O  0.36747409  0.48139099  0.48466530    -0.75300
O322        O  0.35417836  0.50254944  0.47464391    -0.78800
O323        O  0.28811240  0.43643485  0.42070863    -0.79400
C324        C  0.36728969  0.49774252  0.98749570     0.95800
O325        O  0.34227679  0.49354908  0.41518665    -0.77400
O326        O  0.34504865  0.43313945  0.47905680    -0.82600
C327        C  0.32912961  0.41909926  0.41855265     0.98400
C328        C  0.32813830  0.42140963  0.49335553     1.04400
O329        O  0.31218545  0.41391794  0.43241504    -0.78200
C330        C  0.35980005  0.49470739  0.40874553     1.02700
Fe331      Fe  0.50201665  0.66173408  0.20197591     1.65800
Fe332      Fe  0.53435242  0.64864054  0.23753986     1.73200
Fe333      Fe  0.54768879  0.66920394  0.17137598     1.54400
O334        O  0.52180215  0.65143322  0.14365349    -0.82000
O335        O  0.56498746  0.67364369  0.23909342    -0.80300
O336        O  0.49179467  0.64191700  0.16772349    -0.84500
O337        O  0.51474898  0.68894110  0.17680813    -0.79300
O338        O  0.55025383  0.64239323  0.17235024    -0.81100
O339        O  0.52672470  0.66782465  0.26359339    -0.83900
C340        C  0.53268623  0.70152357  0.16563804     0.96900
C341        C  0.50139941  0.64038634  0.14634397     1.04300
O342        O  0.52815406  0.65992179  0.20363481    -1.12800
O343        O  0.50435592  0.62218820  0.23996435    -0.75300
O344        O  0.48352754  0.63479894  0.22672946    -0.78800
O345        O  0.54763310  0.69736874  0.16543817    -0.79400
C346        C  0.48614333  0.62026236  0.23775983     0.95800
O347        O  0.51158522  0.68159513  0.23617302    -0.77400
O348        O  0.54267940  0.62847648  0.21522300    -0.82600
C349        C  0.57872469  0.68724242  0.22242982     0.98400
C350        C  0.54755590  0.62802522  0.18968438     1.04400
O351        O  0.57524559  0.68727202  0.19625466    -0.78200
C352        C  0.52001564  0.68103899  0.25919839     1.02700
Fe353      Fe  0.66435693  0.49995431  0.04353060     1.65800
Fe354      Fe  0.64830951  0.53024703  0.00822245     1.73200
Fe355      Fe  0.66902819  0.54520425  0.07404141     1.54400
O356        O  0.65146175  0.51885618  0.10144436    -0.82000
O357        O  0.67066219  0.56217138  0.00723083    -0.80300
O358        O  0.64445729  0.48900870  0.07748282    -0.84500
O359        O  0.69132748  0.51407886  0.06861239    -0.79300
O360        O  0.64208412  0.54722276  0.07227454    -0.81100
O361        O  0.66828245  0.52351004  0.48070371    -0.83900
C362        C  0.70281947  0.53216733  0.08042253     0.96900
C363        C  0.64116961  0.49828253  0.09801540     1.04300
O364        O  0.66071106  0.52532271  0.04189612    -1.12800
O365        O  0.62297084  0.49915608  0.50387559    -0.75300
O366        O  0.63811552  0.47974896  0.01890272    -0.78800
O367        O  0.69737478  0.54629908  0.08136594    -0.79400
C368        C  0.62142274  0.48098701  0.50710887     0.95800
O369        O  0.68405383  0.51061346  0.00921171    -0.77400
O370        O  0.62677315  0.53624371  0.03054451    -0.82600
C371        C  0.68426971  0.57661557  0.02325319     0.98400
C372        C  0.62702059  0.54272133  0.05544584     1.04400
O373        O  0.68635793  0.57293970  0.04886304    -0.78200
C374        C  0.68172554  0.51720778  0.48530005     1.02700
Fe375      Fe  0.82656081  0.82328072  0.37731422     1.65800
Fe376      Fe  0.77814578  0.78598031  0.40483318     1.73200
Fe377      Fe  0.79217558  0.77895222  0.33894880     1.54400
O378        O  0.80129798  0.80657087  0.31452231    -0.82000
O379        O  0.77271136  0.75530765  0.40234956    -0.80300
O380        O  0.82105387  0.83543563  0.34172267    -0.84500
O381        O  0.84423387  0.81293657  0.35526789    -0.79300
O382        O  0.76208747  0.77400146  0.33678338    -0.81100
O383        O  0.80216197  0.79151137  0.43402946    -0.83900
C384        C  0.84033163  0.79634565  0.34129267     0.96900
C385        C  0.81132934  0.82694442  0.31902213     1.04300
O386        O  0.79889738  0.79605568  0.37368172    -1.12800
O387        O  0.78113960  0.81562514  0.41213434    -0.75300
O388        O  0.81456312  0.83913319  0.40022500    -0.78800
O389        O  0.82151102  0.78152163  0.33582282    -0.79400
C390        C  0.79701437  0.83465500  0.41155288     0.95800
O391        O  0.83364395  0.81268511  0.41307932    -0.77400
O392        O  0.75181613  0.77872085  0.37880255    -0.82600
C393        C  0.77524507  0.74354434  0.38489773     0.98400
C394        C  0.74853613  0.77466371  0.35269470     1.04400
O395        O  0.78195286  0.74969381  0.36007288    -0.78200
C396        C  0.82258653  0.80100147  0.43341182     1.02700
C397        C  0.69773714  0.59819808  0.01019718    -0.03500
C398        C  0.71803716  0.61351419  0.02032860    -0.06100
C399        C  0.73380735  0.63176875  0.50431293    -0.21200
C400        C  0.72909217  0.63556641  0.47706819     0.24500
C401        C  0.70995160  0.61988415  0.46456756    -0.18700
C402        C  0.69042348  0.60284508  0.98536178    -0.08700
C403        C  0.74332605  0.65672472  0.46321842    -0.19000
C404        C  0.74370737  0.65983678  0.43522356    -0.16600
C405        C  0.75473772  0.68145562  0.42129170     0.26600
C406        C  0.75016740  0.68294195  0.39298332    -0.20600
C407        C  0.75796731  0.70313087  0.38004575    -0.10200
C408        C  0.77038460  0.72216057  0.39532730    -0.10700
C409        C  0.77605314  0.72067365  0.42296381    -0.03700
C410        C  0.76851328  0.70065363  0.43574870    -0.18800
H411        H  0.72412922  0.61044502  0.03936253     0.10300
H412        H  0.74832452  0.64371778  0.51460551     0.10400
H413        H  0.70515733  0.62240486  0.44418540     0.10000
H414        H  0.67468972  0.59168265  0.97715925     0.11100
H415        H  0.75301609  0.67011673  0.47703762     0.11200
H416        H  0.73446456  0.64599443  0.42175099     0.13100
H417        H  0.73975431  0.66846109  0.38118468     0.09700
H418        H  0.75327998  0.70386409  0.35877051     0.11700
H419        H  0.78585127  0.73517439  0.43508157     0.08400
H420        H  0.77319231  0.70059133  0.45713810     0.11100
C421        C  0.59901228  0.70365364  0.23561060    -0.03500
C422        C  0.59778781  0.71218056  0.26159370    -0.06100
C423        C  0.61588533  0.72373910  0.27823690    -0.21200
C424        C  0.63581091  0.72723616  0.26941935     0.24500
C425        C  0.63739890  0.71979360  0.24260838    -0.18700
C426        C  0.61909142  0.70812032  0.22578360    -0.08700
C427        C  0.65379975  0.73694690  0.28992623    -0.19000
C428        C  0.67457999  0.74680992  0.28283841    -0.23800
C429        C  0.69239238  0.75590341  0.30360773     0.26600
C430        C  0.71256117  0.77224231  0.29471289    -0.20600
C431        C  0.73036507  0.77953730  0.31202738    -0.10200
C432        C  0.72861254  0.77062488  0.33873431    -0.10700
C433        C  0.70829698  0.75503635  0.34845286    -0.03700
C434        C  0.69028696  0.74767483  0.33099748    -0.18800
H435        H  0.58248455  0.70897192  0.26968748     0.10300
H436        H  0.61413365  0.72930837  0.29861515     0.10400
H437        H  0.65241622  0.72185292  0.23521220     0.10000
H438        H  0.62039465  0.70141036  0.20607244     0.11100
H439        H  0.64962719  0.73642355  0.31185138     0.11200
H440        H  0.67891045  0.74904376  0.26084312     0.13100
H441        H  0.71471136  0.77890686  0.27385332     0.09700
H442        H  0.74586037  0.79145965  0.30392732     0.11700
H443        H  0.70658177  0.74752335  0.36864537     0.08400
H444        H  0.67506437  0.73473345  0.33842359     0.11100
C445        C  0.54922851  0.60993162  0.17768677    -0.03500
C446        C  0.53685477  0.59973812  0.15383158    -0.06100
C447        C  0.54216766  0.58779052  0.13589939    -0.21200
C448        C  0.55982571  0.58543992  0.14150473     0.24500
C449        C  0.57141332  0.59435280  0.16646007    -0.18700
C450        C  0.56620327  0.60663598  0.18437255    -0.08700
C451        C  0.56709721  0.57591618  0.11937572    -0.19000
C452        C  0.57695042  0.56473241  0.12490336    -0.23800
C453        C  0.58568296  0.55653906  0.10288355     0.26600
C454        C  0.58770371  0.53857219  0.10906878    -0.20600
C455        C  0.59921322  0.53260665  0.09140445    -0.10200
C456        C  0.60914271  0.54453913  0.06716411    -0.10700
C457        C  0.60606462  0.56170988  0.05984458    -0.03700
C458        C  0.59431406  0.56762579  0.07751714    -0.18800
H459        H  0.52392734  0.60238189  0.14794684     0.10300
H460        H  0.53301270  0.58117665  0.11688458     0.10400
H461        H  0.58538869  0.59317911  0.17111879     0.10000
H462        H  0.57638201  0.61487686  0.20211744     0.11100
H463        H  0.56375951  0.57783449  0.09777423     0.11200
H464        H  0.57847410  0.56112007  0.14653349     0.13100
H465        H  0.58128419  0.52977383  0.12839539     0.09700
H466        H  0.60175932  0.51959321  0.09779727     0.11700
H467        H  0.61414830  0.57158457  0.04178277     0.08400
H468        H  0.59341321  0.58181952  0.07233390     0.11100
C469        C  0.46760748  0.60070637  0.24955124    -0.03500
C470        C  0.46935088  0.58256649  0.25608012    -0.06100
C471        C  0.45311399  0.56521456  0.27074783    -0.21200
C472        C  0.43495496  0.56574720  0.27958180     0.24500
C473        C  0.43248900  0.58320839  0.27137772    -0.18700
C474        C  0.44869036  0.60053015  0.25646377    -0.08700
C475        C  0.41971166  0.54844101  0.29858686    -0.19000
C476        C  0.40803127  0.55170882  0.31775570    -0.23800
C477        C  0.39519452  0.53580767  0.33972923     0.26600
C478        C  0.37825935  0.53703449  0.35190274    -0.20600
C479        C  0.36660376  0.52341384  0.37392590    -0.10200
C480        C  0.37184826  0.50844478  0.38465796    -0.10700
C481        C  0.38884727  0.50719226  0.37253661    -0.03700
C482        C  0.40040323  0.52071514  0.35023552    -0.18800
H483        H  0.48359210  0.58206101  0.25060843     0.10300
H484        H  0.45523592  0.55180670  0.27639339     0.10400
H485        H  0.41829692  0.58377104  0.27683046     0.10000
H486        H  0.44678896  0.61416748  0.25140947     0.11100
H487        H  0.41950650  0.53321762  0.29828186     0.11200
H488        H  0.40824907  0.56693309  0.31813907     0.13100
H489        H  0.37411515  0.54868859  0.34445291     0.09700
H490        H  0.35370760  0.52494355  0.38292280     0.11700
H491        H  0.39331400  0.49589574  0.38041285     0.08400
H492        H  0.41380090  0.51975682  0.34198301     0.11100
C493        C  0.48785609  0.62442727  0.12445550    -0.03500
C494        C  0.49674723  0.61935620  0.10157066    -0.06100
C495        C  0.48354312  0.60291680  0.08265310    -0.21200
C496        C  0.46117467  0.59126052  0.08605273     0.24500
C497        C  0.45237377  0.59641066  0.10896483    -0.18700
C498        C  0.46546527  0.61277415  0.12768354    -0.08700
C499        C  0.44751865  0.57331410  0.06618663    -0.19000
C500        C  0.42649283  0.56609648  0.06231478    -0.23800
C501        C  0.41206315  0.54823561  0.04296590     0.26600
C502        C  0.39299328  0.54713636  0.03463787    -0.20600
C503        C  0.38004357  0.53375695  0.51394214    -0.10200
C504        C  0.38255605  0.51448816  0.00738193    -0.10700
C505        C  0.40145669  0.51523180  0.01609669    -0.03700
C506        C  0.41611968  0.53198345  0.03364680    -0.18800
H507        H  0.51391030  0.62777155  0.09858213     0.10300
H508        H  0.49083119  0.59920883  0.06540005     0.10400
H509        H  0.43538744  0.58745142  0.11318078     0.10000
H510        H  0.45793294  0.61591444  0.14517788     0.11100
H511        H  0.45520355  0.56647786  0.05384218     0.11200
H512        H  0.41942390  0.57434200  0.07288889     0.13100
H513        H  0.38927403  0.55922154  0.04165311     0.09700
H514        H  0.36650962  0.53457967  0.50595246     0.11700
H515        H  0.40503592  0.50306054  0.00906244     0.08400
H516        H  0.43039000  0.53195105  0.04013228     0.11100
C517        C  0.32579974  0.40277943  0.00884173    -0.03500
C518        C  0.31328093  0.39701315  0.53443577    -0.06100
C519        C  0.30491710  0.37654318  0.04473978    -0.21200
C520        C  0.30942216  0.36132895  0.03290809     0.24500
C521        C  0.32387509  0.36782736  0.01030025    -0.18700
C522        C  0.33209171  0.38846806  0.99849715    -0.08700
C523        C  0.29665605  0.33855966  0.04301840    -0.19000
C524        C  0.29756057  0.32140877  0.03303073    -0.23800
C525        C  0.28138556  0.29903327  0.04171166     0.26600
C526        C  0.28739290  0.28368453  0.04779301    -0.20600
C527        C  0.27240175  0.26336292  0.05876329    -0.10200
C528        C  0.25104721  0.25793009  0.06324237    -0.10700
C529        C  0.24483104  0.27274083  0.05476311    -0.03700
C530        C  0.25978204  0.29300087  0.04430058    -0.18800
H531        H  0.30841807  0.40770362  0.54354441     0.10300
H532        H  0.29432888  0.37172375  0.56329156     0.10400
H533        H  0.32792468  0.35675129  0.00057426     0.10000
H534        H  0.34177258  0.39245819  0.97976312     0.11100
H535        H  0.28468052  0.33546530  0.05888018     0.11200
H536        H  0.31002177  0.32352878  0.01862236     0.13100
H537        H  0.30389183  0.28783144  0.04545431     0.09700
H538        H  0.27777912  0.25241006  0.06507340     0.11700
H539        H  0.22854342  0.26917453  0.05757066     0.08400
H540        H  0.25448993  0.30418604  0.03879708     0.11100
C541        C  0.60208167  0.46165420  0.49623723    -0.03500
C542        C  0.60140152  0.44184393  0.49284955    -0.06100
C543        C  0.58433170  0.42471715  0.47866802    -0.21200
C544        C  0.56777636  0.42717047  0.46757617     0.24500
C545        C  0.56751317  0.44626392  0.47329688    -0.18700
C546        C  0.58454514  0.46335419  0.48727477    -0.08700
C547        C  0.55191467  0.41033754  0.44850886    -0.19000
C548        C  0.54347169  0.41553093  0.42688269    -0.23800
C549        C  0.52961979  0.40039434  0.40470309     0.26600
C550        C  0.51981333  0.40775426  0.38599718    -0.20600
C551        C  0.50774864  0.39497280  0.36356430    -0.10200
C552        C  0.50524930  0.37446379  0.35914550    -0.10700
C553        C  0.51487322  0.36691715  0.37798947    -0.03700
C554        C  0.52694860  0.37972935  0.40054913    -0.18800
H555        H  0.61452355  0.43992134  0.49992517     0.10300
H556        H  0.58465662  0.40998567  0.47501916     0.10400
H557        H  0.55444615  0.44830883  0.46635485     0.10000
H558        H  0.58426165  0.47816892  0.49028451     0.11100
H559        H  0.54868853  0.39395962  0.45108512     0.11200
H560        H  0.54763202  0.43224364  0.42437686     0.13100
H561        H  0.52168184  0.42363044  0.38855525     0.09700
H562        H  0.50060971  0.40133193  0.34946967     0.11700
H563        H  0.51326952  0.35118042  0.37515805     0.08400
H564        H  0.53448535  0.37350077  0.41406722     0.11100
C565        C  0.62334700  0.48408384  0.11714743    -0.03500
C566        C  0.60600798  0.46510608  0.10607793    -0.06100
C567        C  0.58837942  0.45157674  0.12256624    -0.21200
C568        C  0.58770379  0.45623570  0.15084909     0.24500
C569        C  0.60496885  0.47522242  0.16222622    -0.18700
C570        C  0.62254919  0.48921627  0.14536715    -0.08700
C571        C  0.56846302  0.44096969  0.16730514    -0.19000
C572        C  0.56927780  0.43606337  0.19424757    -0.23800
C573        C  0.55055136  0.41841392  0.20934509     0.26600
C574        C  0.55431269  0.40730386  0.23056619    -0.20600
C575        C  0.53731939  0.39055393  0.24520177    -0.10200
C576        C  0.51601739  0.38468700  0.23943515    -0.10700
C577        C  0.51217801  0.39596046  0.21837755    -0.03700
C578        C  0.52925272  0.41256637  0.20335589    -0.18800
H579        H  0.60582739  0.46086770  0.08427024     0.10300
H580        H  0.57527534  0.43721910  0.11321170     0.10400
H581        H  0.60469257  0.47945527  0.18391154     0.10000
H582        H  0.63550856  0.50384928  0.15436682     0.11100
H583        H  0.55358270  0.43171841  0.15590399     0.11200
H584        H  0.58464157  0.44379088  0.20479638     0.13100
H585        H  0.57049808  0.41148528  0.23571085     0.09700
H586        H  0.54095278  0.38243974  0.26149114     0.11700
H587        H  0.49600768  0.39197728  0.21355853     0.08400
H588        H  0.52575147  0.42107170  0.18750461     0.11100
C589        C  0.40396460  0.32261448  0.23025070    -0.03500
C590        C  0.39702357  0.30717790  0.20875473    -0.06100
C591        C  0.37694418  0.29931700  0.19662129    -0.21200
C592        C  0.36319152  0.30651439  0.20578591     0.24500
C593        C  0.37078194  0.32323846  0.22580112    -0.18700
C594        C  0.39108822  0.33129843  0.23780243    -0.08700
C595        C  0.34051412  0.29411837  0.19637170    -0.19000
C596        C  0.32527733  0.29916736  0.20167694    -0.23800
C597        C  0.30260658  0.28377883  0.19421841     0.26600
C598        C  0.28983329  0.29109682  0.18196493    -0.20600
C599        C  0.26937922  0.27623277  0.17173205    -0.10200
C600        C  0.26138080  0.25386114  0.17397286    -0.10700
C601        C  0.27351807  0.24675678  0.18851020    -0.03700
C602        C  0.29384434  0.26150593  0.19849733    -0.18800
H603        H  0.40655507  0.30011680  0.20262429     0.10300
H604        H  0.37162255  0.28653724  0.18117022     0.10400
H605        H  0.36070535  0.32916633  0.23360974     0.10000
H606        H  0.39588378  0.34291477  0.25471661     0.11100
H607        H  0.33581380  0.27920604  0.18502583     0.11200
H608        H  0.32930619  0.31462490  0.21080623     0.13100
H609        H  0.29614935  0.30822793  0.17885963     0.09700
H610        H  0.26046578  0.28220873  0.16051293     0.11700
H611        H  0.26774034  0.22966195  0.19093719     0.08400
H612        H  0.30301018  0.25542386  0.20883747     0.11100
C613        C  0.40169918  0.33140648  0.33696318    -0.03500
C614        C  0.38261530  0.32444060  0.32205344    -0.06100
C615        C  0.36850939  0.33149481  0.32972853    -0.21200
C616        C  0.37280283  0.34498128  0.35304448     0.24500
C617        C  0.39115978  0.35072957  0.36913560    -0.18700
C618        C  0.40565846  0.34428049  0.36088815    -0.08700
C619        C  0.35971260  0.35526173  0.35795097    -0.19000
C620        C  0.35501676  0.35926161  0.38367321    -0.23800
C621        C  0.34507541  0.37270161  0.38862229     0.26600
C622        C  0.33070966  0.36767051  0.41088550    -0.20600
C623        C  0.32376344  0.38193526  0.41871914    -0.10200
C624        C  0.33172369  0.40192802  0.40512623    -0.10700
C625        C  0.34545962  0.40659224  0.38212491    -0.03700
C626        C  0.35183728  0.39197360  0.37368687    -0.18800
H627        H  0.37943370  0.31494431  0.30313263     0.10300
H628        H  0.35461635  0.32706652  0.31684101     0.10400
H629        H  0.39508866  0.36146282  0.38691449     0.10000
H630        H  0.42041842  0.35014410  0.37242678     0.11100
H631        H  0.35408944  0.36001425  0.33978686     0.11200
H632        H  0.35889568  0.35278676  0.40178895     0.13100
H633        H  0.32544820  0.35302975  0.42286012     0.09700
H634        H  0.31347887  0.37806630  0.43683938     0.11700
H635        H  0.35205238  0.42198581  0.37152246     0.08400
H636        H  0.36322583  0.39645333  0.35674167     0.11100
C637        C  0.65768848  0.07006075  0.34687327    -0.03500
C638        C  0.64258915  0.06354384  0.36848245    -0.06100
C639        C  0.63468719  0.04341323  0.38116000    -0.21200
C640        C  0.64139324  0.02909214  0.37230674     0.24500
C641        C  0.65784521  0.03631645  0.35220018    -0.18700
C642        C  0.66600325  0.05673070  0.33970976    -0.08700
C643        C  0.62881439  0.00628735  0.38230512    -0.19000
C644        C  0.63242192  0.99006903  0.37584359    -0.23800
C645        C  0.61664387  0.96735971  0.38376573     0.26600
C646        C  0.62342201  0.95348935  0.39409727    -0.20600
C647        C  0.60844288  0.93287113  0.40425032    -0.10200
C648        C  0.58642514  0.92571378  0.40382148    -0.10700
C649        C  0.57972910  0.93903594  0.39133624    -0.03700
C650        C  0.59461092  0.95954723  0.38147370    -0.18800
H651        H  0.63581932  0.07344726  0.37427291     0.10300
H652        H  0.62219017  0.03845556  0.39671442     0.10400
H653        H  0.66354311  0.02589078  0.34476222     0.10000
H654        H  0.67738897  0.06124009  0.32274363     0.11100
H655        H  0.61481886  0.00230284  0.39494543     0.11200
H656        H  0.64690469  0.99325139  0.36511245     0.13100
H657        H  0.64031718  0.95902696  0.39565595     0.09700
H658        H  0.61416194  0.92308901  0.41387201     0.11700
H659        H  0.56292748  0.93400907  0.39032802     0.08400
H660        H  0.58884905  0.96954006  0.37261559     0.11100
C661        C  0.53604826  0.72119217  0.15106253    -0.03500
C662        C  0.55507958  0.73411741  0.13613260    -0.06100
C663        C  0.55727007  0.75097325  0.11929366    -0.21200
C664        C  0.54047213  0.75517542  0.11679341     0.24500
C665        C  0.52191290  0.74314011  0.13299014    -0.18700
C666        C  0.51971813  0.72627131  0.14991978    -0.08700
C667        C  0.54264973  0.77162940  0.09630037    -0.19000
C668        C  0.52581513  0.77025085  0.08259866    -0.23800
C669        C  0.52780479  0.78500616  0.05961469     0.26600
C670        C  0.51000548  0.78689681  0.05303581    -0.20600
C671        C  0.51082608  0.79995440  0.03094778    -0.10200
C672        C  0.52946692  0.81131476  0.01469848    -0.10700
C673        C  0.54725050  0.80925508  0.02106238    -0.03700
C674        C  0.54642872  0.79618582  0.04323271    -0.18800
H675        H  0.56803970  0.73074794  0.13662778     0.10300
H676        H  0.57180603  0.76017820  0.10725255     0.10400
H677        H  0.50897076  0.74651025  0.13239684     0.10000
H678        H  0.50498541  0.71682676  0.16146591     0.11100
H679        H  0.55873048  0.78428158  0.09102378     0.11200
H680        H  0.50977279  0.75749165  0.08791073     0.13100
H681        H  0.49540231  0.77827241  0.06510235     0.09700
H682        H  0.49678876  0.80112621  0.02664423     0.11700
H683        H  0.56178519  0.81766321  0.00885501     0.08400
H684        H  0.56024494  0.79455496  0.04694518     0.11100
C685        C  0.53329659  0.81142198  0.39391230    -0.03500
C686        C  0.54744220  0.81784987  0.37111795    -0.06100
C687        C  0.54735489  0.80241511  0.35293849    -0.21200
C688        C  0.53356475  0.78017404  0.35752475     0.24500
C689        C  0.51945621  0.77372626  0.38039846    -0.18700
C690        C  0.51924200  0.78916143  0.39824198    -0.08700
C691        C  0.53333885  0.76433058  0.33699144    -0.19000
C692        C  0.52727186  0.74358960  0.34311899    -0.23800
C693        C  0.52597619  0.72783387  0.32154328     0.26600
C694        C  0.52884681  0.71050996  0.32915412    -0.20600
C695        C  0.52719264  0.69530966  0.30911793    -0.10200
C696        C  0.52213986  0.69686530  0.28115186    -0.10700
C697        C  0.51900712  0.71408194  0.27380402    -0.03700
C698        C  0.52089541  0.72929114  0.29361800    -0.18800
H699        H  0.55843835  0.83484823  0.36715819     0.10300
H700        H  0.55819085  0.80786164  0.33530223     0.10400
H701        H  0.50820976  0.75678261  0.38422830     0.10000
H702        H  0.50822314  0.78364210  0.41568421     0.11100
H703        H  0.53899378  0.77028981  0.31606385     0.11200
H704        H  0.52362535  0.73807175  0.36458805     0.13100
H705        H  0.53252199  0.70883071  0.35059910     0.09700
H706        H  0.52963517  0.68225318  0.31556331     0.11700
H707        H  0.51507908  0.71590409  0.25254345     0.08400
H708        H  0.51787717  0.74193006  0.28703610     0.11100
C709        C  0.79549479  0.85208106  0.42605994    -0.03500
C710        C  0.81350533  0.87295416  0.42810027    -0.06100
C711        C  0.81313828  0.88849372  0.44534782    -0.21200
C712        C  0.79487147  0.88345315  0.46107788     0.24500
C713        C  0.77639668  0.86305660  0.45769717    -0.18700
C714        C  0.77672868  0.84751657  0.44039533    -0.08700
C715        C  0.79589282  0.89966093  0.48124607    -0.19000
C716        C  0.79181979  0.89555804  0.00967714    -0.23800
C717        C  0.79292199  0.91180573  0.02999222     0.26600
C718        C  0.77679471  0.90491523  0.05030993    -0.20600
C719        C  0.77717783  0.91928530  0.07034429    -0.10200
C720        C  0.79388711  0.94089970  0.07078471    -0.10700
C721        C  0.81019962  0.94782949  0.05062699    -0.03700
C722        C  0.80973178  0.93345428  0.03040296    -0.18800
H723        H  0.82820118  0.87707096  0.41721983     0.10300
H724        H  0.82745659  0.90420015  0.44730713     0.10400
H725        H  0.76172919  0.85892502  0.46860927     0.10000
H726        H  0.76249690  0.83170833  0.43899875     0.11100
H727        H  0.80733997  0.91648831  0.47696304     0.11200
H728        H  0.78160475  0.87874538  0.01542426     0.13100
H729        H  0.76377445  0.88831569  0.05065127     0.09700
H730        H  0.76443786  0.91336578  0.08568526     0.11700
H731        H  0.82333060  0.96437038  0.05046085     0.08400
H732        H  0.82279213  0.93933436  0.01561830     0.11100
C733        C  0.79172232  0.94199112  0.19213228    -0.03500
C734        C  0.77278135  0.92457444  0.20281675    -0.06100
C735        C  0.77347284  0.90890797  0.21955191    -0.21200
C736        C  0.79305809  0.91030002  0.22601120     0.24500
C737        C  0.81205344  0.92841882  0.21644065    -0.18700
C738        C  0.81134160  0.94391886  0.19964578    -0.08700
C739        C  0.79290077  0.89256341  0.24257334    -0.19000
C740        C  0.81020713  0.89045350  0.24631264    -0.23800
C741        C  0.81011234  0.87319401  0.26350729     0.26600
C742        C  0.82899922  0.87779979  0.27734110    -0.20600
C743        C  0.82956425  0.86240053  0.29452425    -0.10200
C744        C  0.81140994  0.84179795  0.29762583    -0.10700
C745        C  0.79277772  0.83672406  0.28270185    -0.03700
C746        C  0.79204408  0.85235956  0.26594797    -0.18800
H747        H  0.75740486  0.92260587  0.19740286     0.10300
H748        H  0.75858399  0.89534522  0.22689941     0.10400
H749        H  0.82761862  0.93088692  0.22151489     0.10000
H750        H  0.82628012  0.95729645  0.19208332     0.11100
H751        H  0.77784741  0.88074893  0.25203279     0.11200
H752        H  0.82550345  0.90219555  0.23757019     0.13100
H753        H  0.84320395  0.89362171  0.27552339     0.09700
H754        H  0.84413270  0.86671300  0.30581562     0.11700
H755        H  0.77855982  0.82099279  0.28488600     0.08400
H756        H  0.77740636  0.84810134  0.25492989     0.11100
C757        C  0.73935813  0.00133096  0.17869761    -0.03500
C758        C  0.71725793  0.98658658  0.17635752    -0.06100
C759        C  0.70233400  0.99205390  0.18626025    -0.21200
C760        C  0.70927600  0.01243013  0.19827174     0.24500
C761        C  0.73128503  0.02645898  0.20239557    -0.18700
C762        C  0.74611591  0.02099421  0.19274238    -0.08700
C763        C  0.69373580  0.01943731  0.20564032    -0.19000
C764        C  0.69814688  0.03964931  0.19956358    -0.23800
C765        C  0.68558996  0.04987689  0.20856340     0.26600
C766        C  0.69274600  0.07104930  0.19939773    -0.20600
C767        C  0.68471247  0.08332766  0.21112830    -0.10200
C768        C  0.66906564  0.07466746  0.23210622    -0.10700
C769        C  0.66040131  0.05285574  0.23959144    -0.03700
C770        C  0.66867161  0.04054396  0.22803468    -0.18800
H771        H  0.71150982  0.97137252  0.16547421     0.10300
H772        H  0.68543831  0.98087088  0.18318254     0.10400
H773        H  0.73708488  0.04199136  0.21246202     0.10000
H774        H  0.76296875  0.03264460  0.19519628     0.11100
H775        H  0.67873202  0.00787276  0.21533351     0.11200
H776        H  0.71268462  0.04990959  0.18786730     0.13100
H777        H  0.70561136  0.07865769  0.18432572     0.09700
H778        H  0.69175065  0.10012502  0.20508306     0.11700
H779        H  0.64858899  0.04591843  0.25609136     0.08400
H780        H  0.66266919  0.02431180  0.23572066     0.11100
C781        C  0.73638777  0.98549007  0.06848788    -0.03500
C782        C  0.72366834  0.99456408  0.07494605    -0.06100
C783        C  0.70323458  0.98602231  0.06318886    -0.21200
C784        C  0.69536280  0.96840146  0.04454763     0.24500
C785        C  0.70894935  0.96074305  0.03633876    -0.18700
C786        C  0.72911517  0.96900502  0.04837915    -0.08700
C787        C  0.67285379  0.95631212  0.03450984    -0.19000
C788        C  0.65624759  0.95694738  0.04628223    -0.23800
C789        C  0.63393923  0.94119566  0.03778986     0.26600
C790        C  0.62693571  0.92325181  0.53234948    -0.20600
C791        C  0.60663911  0.90827841  0.52254766    -0.10200
C792        C  0.59305136  0.91203788  0.01577521    -0.10700
C793        C  0.59860642  0.93333664  0.02272751    -0.03700
C794        C  0.61885483  0.94774551  0.03395488    -0.18800
H795        H  0.72880611  0.00708573  0.09071144     0.10300
H796        H  0.69348762  0.99274697  0.06954569     0.10400
H797        H  0.70343600  0.94734821  0.02182557     0.10000
H798        H  0.73854791  0.96163343  0.04318238     0.11100
H799        H  0.66942214  0.94475447  0.01772349     0.11200
H800        H  0.65874702  0.96861816  0.06244146     0.13100
H801        H  0.63760424  0.91758656  0.53860695     0.09700
H802        H  0.60242535  0.89151585  0.52094841     0.11700
H803        H  0.58782201  0.93919923  0.01808537     0.08400
H804        H  0.62315881  0.96430407  0.03814372     0.11100
C805        C  0.50386770  0.13054688  0.11406070    -0.03500
C806        C  0.49503496  0.11653628  0.13703839    -0.06100
C807        C  0.50814112  0.11265091  0.15489122    -0.21200
C808        C  0.53034584  0.12280159  0.15034996     0.24500
C809        C  0.53905847  0.13666358  0.12723002    -0.18700
C810        C  0.52607645  0.14055094  0.10955061    -0.08700
C811        C  0.54399829  0.11831034  0.16943248    -0.19000
C812        C  0.56509804  0.13240335  0.17297372    -0.23800
C813        C  0.57960148  0.12923110  0.19195924     0.26600
C814        C  0.59869489  0.14763195  0.20027380    -0.20600
C815        C  0.61308850  0.14593406  0.21788827    -0.10200
C816        C  0.60902275  0.12568995  0.22749944    -0.10700
C817        C  0.59018282  0.10707442  0.21863324    -0.03700
C818        C  0.57553613  0.10881233  0.20109769    -0.18800
H819        H  0.47798980  0.10828289  0.14091813     0.10300
H820        H  0.50091250  0.10168717  0.17232262     0.10400
H821        H  0.55586353  0.14419958  0.12215768     0.10000
H822        H  0.53353700  0.15121792  0.09190406     0.11100
H823        H  0.53626159  0.10356839  0.18168578     0.11200
H824        H  0.57216706  0.14793910  0.16253508     0.13100
H825        H  0.60241789  0.16354739  0.19337938     0.09700
H826        H  0.62744787  0.16061969  0.22413191     0.11700
H827        H  0.58655006  0.09124792  0.22573903     0.08400
H828        H  0.56124087  0.09420876  0.19460219     0.11100
C829        C  0.51535803  0.12038824  0.48437423    -0.03500
C830        C  0.50844189  0.10096791  0.46961800    -0.06100
C831        C  0.52273349  0.09807526  0.45328328    -0.21200
C832        C  0.54411419  0.11456754  0.45117774     0.24500
C833        C  0.55137147  0.13348560  0.46719475    -0.18700
C834        C  0.53708422  0.13639067  0.48359039    -0.08700
C835        C  0.55817184  0.11194516  0.43115614    -0.19000
C836        C  0.57330697  0.12882820  0.41668241    -0.23800
C837        C  0.58663995  0.12733234  0.39423766     0.26600
C838        C  0.60200147  0.14664611  0.38159505    -0.20600
C839        C  0.61481366  0.14644755  0.36003707    -0.10200
C840        C  0.61244132  0.12685511  0.35041052    -0.10700
C841        C  0.59706506  0.10744608  0.36288479    -0.03700
C842        C  0.58430937  0.10763904  0.38468667    -0.18800
H843        H  0.49182942  0.08823606  0.46993765     0.10300
H844        H  0.51687648  0.08329194  0.44132697     0.10400
H845        H  0.56799007  0.14617122  0.46678345     0.10000
H846        H  0.54012042  0.14944327  0.99550601     0.11100
H847        H  0.55458816  0.09563877  0.42682881     0.11200
H848        H  0.57557085  0.14476008  0.42069293     0.13100
H849        H  0.60409746  0.16202197  0.38837320     0.09700
H850        H  0.62645093  0.16167574  0.35070272     0.11700
H851        H  0.59501605  0.09212554  0.35594798     0.08400
H852        H  0.57271577  0.09230662  0.39360040     0.11100
C853        C  0.45233995  0.26866538  0.34685477    -0.03500
C854        C  0.43392226  0.25509008  0.36256126    -0.06100
C855        C  0.43284843  0.23815701  0.37854746    -0.21200
C856        C  0.45016436  0.23452855  0.37925447     0.24500
C857        C  0.46830781  0.24778807  0.36294900    -0.18700
C858        C  0.46943306  0.26466934  0.34721316    -0.08700
C859        C  0.44903690  0.21683123  0.39686393    -0.19000
C860        C  0.46675893  0.21802278  0.40770831    -0.23800
C861        C  0.46717143  0.20149737  0.42599712     0.26600
C862        C  0.48534021  0.20809339  0.44263630    -0.20600
C863        C  0.48698351  0.19352829  0.46015349    -0.10200
C864        C  0.47059241  0.17177757  0.46132467    -0.10700
C865        C  0.45255008  0.16485797  0.44412293    -0.03700
C866        C  0.45078793  0.17962748  0.42664833    -0.18800
H867        H  0.42033799  0.25749654  0.36242915     0.10300
H868        H  0.41856400  0.22801652  0.39061075     0.10400
H869        H  0.48162555  0.24500409  0.36185297     0.10000
H870        H  0.48368874  0.27440031  0.33490090     0.11100
H871        H  0.43339592  0.20332152  0.40215400     0.11200
H872        H  0.48203326  0.23265470  0.40436924     0.13100
H873        H  0.49828599  0.22474943  0.44239605     0.09700
H874        H  0.50092232  0.19517220  0.96763708     0.11700
H875        H  0.43960556  0.14822646  0.44473820     0.08400
H876        H  0.43674799  0.17385783  0.41362872     0.11100
C877        C  0.46086187  0.27767783  0.22808481    -0.03500
C878        C  0.44239389  0.25756572  0.22316459    -0.06100
C879        C  0.44208925  0.24393857  0.20220349    -0.21200
C880        C  0.46009188  0.25007574  0.18540150     0.24500
C881        C  0.47861563  0.27027266  0.19001344    -0.18700
C882        C  0.47896763  0.28396172  0.21120916    -0.08700
C883        C  0.45890707  0.23430088  0.16443656    -0.19000
C884        C  0.47146152  0.23934397  0.14167689    -0.23800
C885        C  0.46936392  0.22245804  0.12183175     0.26600
C886        C  0.48752023  0.22516164  0.10772138    -0.20600
C887        C  0.48636045  0.20843757  0.09128555    -0.10200
C888        C  0.46694093  0.18876272  0.08860505    -0.10700
C889        C  0.44850059  0.18668439  0.10122834    -0.03700
C890        C  0.44964831  0.20338861  0.11746696    -0.18800
H891        H  0.42813782  0.25218174  0.23568670     0.10300
H892        H  0.42765391  0.22843294  0.19913624     0.10400
H893        H  0.49297530  0.27533421  0.17790318     0.10000
H894        H  0.49346323  0.29934087  0.21455508     0.11100
H895        H  0.44679100  0.21753425  0.16809232     0.11200
H896        H  0.48404571  0.25590189  0.13798987     0.13100
H897        H  0.50280768  0.23986125  0.11039209     0.09700
H898        H  0.50083867  0.21058750  0.08167412     0.11700
H899        H  0.43321471  0.17190485  0.09914773     0.08400
H900        H  0.43508691  0.20114768  0.12686606     0.11100
C901        C  0.27192376  0.04165609  0.39484913    -0.03500
C902        C  0.29091481  0.04442825  0.38318592    -0.06100
C903        C  0.31035121  0.05630289  0.39772139    -0.21200
C904        C  0.31103550  0.06541654  0.42413941     0.24500
C905        C  0.29219711  0.06379853  0.43468550    -0.18700
C906        C  0.27292686  0.05197197  0.42031070    -0.08700
C907        C  0.33146087  0.07644333  0.44026536    -0.19000
C908        C  0.33230280  0.07830352  0.46852094    -0.23800
C909        C  0.35264555  0.08879322  0.48479965     0.26600
C910        C  0.34980184  0.08418402  0.01581897    -0.20600
C911        C  0.36941533  0.09216824  0.02997556    -0.10200
C912        C  0.38874206  0.10430300  0.01547025    -0.10700
C913        C  0.39104013  0.11294635  0.48777664    -0.03700
C914        C  0.37193687  0.10476235  0.47294725    -0.18800
H915        H  0.29051830  0.03635801  0.36383889     0.10300
H916        H  0.32471154  0.05757773  0.38889027     0.10400
H917        H  0.29213773  0.07132391  0.45427401     0.10000
H918        H  0.25848052  0.05009788  0.42973542     0.11100
H919        H  0.34615821  0.08205572  0.42852760     0.11200
H920        H  0.31755555  0.07071134  0.48046615     0.13100
H921        H  0.33507157  0.07404453  0.02708032     0.09700
H922        H  0.36946528  0.08767766  0.05155061     0.11700
H923        H  0.40581272  0.12435768  0.47744267     0.08400
H924        H  0.37245587  0.11067024  0.45200254     0.11100
C925        C  0.19808340  0.14253461  0.06407334    -0.03500
C926        C  0.17763664  0.12490145  0.05823256    -0.06100
C927        C  0.17502935  0.10796584  0.04100839    -0.21200
C928        C  0.19273954  0.10782698  0.02938098     0.24500
C929        C  0.21331607  0.12547506  0.03502687    -0.18700
C930        C  0.21593404  0.14270322  0.05210156    -0.08700
C931        C  0.18863312  0.08943348  0.01052536    -0.19000
C932        C  0.20649599  0.08530334  0.50559045    -0.23800
C933        C  0.20203040  0.06694533  0.48630176     0.26600
C934        C  0.21283067  0.05540828  0.48990808    -0.20600
C935        C  0.20943928  0.03862672  0.47144933    -0.10200
C936        C  0.19529727  0.03314067  0.44873241    -0.10700
C937        C  0.18444533  0.04464517  0.44533612    -0.03700
C938        C  0.18780209  0.06128549  0.46366661    -0.18800
H939        H  0.16350062  0.12417081  0.06697402     0.10300
H940        H  0.15898955  0.09475606  0.03690839     0.10400
H941        H  0.22734835  0.12620206  0.02598567     0.10000
H942        H  0.23191542  0.15597435  0.05627097     0.11100
H943        H  0.17256641  0.08008981  0.00214213     0.11200
H944        H  0.22129266  0.09263189  0.51741545     0.13100
H945        H  0.22402189  0.05947256  0.50698350     0.09700
H946        H  0.21824406  0.03030995  0.47459388     0.11700
H947        H  0.17353819  0.04109531  0.42804133     0.08400
H948        H  0.17963244  0.07006637  0.45936790     0.11100
C949        C  0.19759010  0.05139405  0.31938919    -0.03500
C950        C  0.17861185  0.05181823  0.31540164    -0.06100
C951        C  0.17864709  0.06822989  0.29970393    -0.21200
C952        C  0.19759106  0.08452426  0.28750855     0.24500
C953        C  0.21676383  0.08460389  0.29241673    -0.18700
C954        C  0.21672519  0.06815762  0.30807484    -0.08700
C955        C  0.19649432  0.10083766  0.26958612    -0.19000
C956        C  0.21081756  0.11192626  0.24928467    -0.23800
C957        C  0.20875082  0.12647428  0.22900744     0.26600
C958        C  0.22651245  0.14006041  0.21237003    -0.20600
C959        C  0.22494802  0.15267725  0.19134172    -0.10200
C960        C  0.20550839  0.15195842  0.18639041    -0.10700
C961        C  0.18785126  0.13878649  0.20347306    -0.03700
C962        C  0.18938872  0.12611321  0.22444146    -0.18800
H963        H  0.16358078  0.03917434  0.32386385     0.10300
H964        H  0.16370394  0.06787335  0.29646688     0.10400
H965        H  0.23186959  0.09729500  0.28431681     0.10000
H966        H  0.23165790  0.06844869  0.31102475     0.11100
H967        H  0.18273822  0.10274579  0.27245793     0.11200
H968        H  0.22444452  0.10976821  0.24646246     0.13100
H969        H  0.24159953  0.14065760  0.21534453     0.09700
H970        H  0.23891672  0.16275545  0.17869630     0.11700
H971        H  0.17262585  0.13782365  0.20020912     0.08400
H972        H  0.17510586  0.11560691  0.23618070     0.11100
C973        C  0.37277728  0.85704398  0.13532294    -0.03500
C974        C  0.39032894  0.85637214  0.14668975    -0.06100
C975        C  0.40783565  0.86046881  0.13016186    -0.21200
C976        C  0.40821630  0.86491348  0.10162223     0.24500
C977        C  0.39077431  0.86574411  0.09000398    -0.18700
C978        C  0.37327331  0.86203327  0.10681181    -0.08700
C979        C  0.42724523  0.86873171  0.08509379    -0.19000
C980        C  0.42628562  0.86317071  0.05801809    -0.23800
C981        C  0.44463480  0.86396765  0.04277477     0.26600
C982        C  0.44023993  0.84935417  0.02079446    -0.20600
C983        C  0.45680514  0.84924873  0.00598272    -0.10200
C984        C  0.47833918  0.86405532  0.01239593    -0.10700
C985        C  0.48283565  0.87890407  0.03426467    -0.03700
C986        C  0.46616319  0.87882158  0.04938912    -0.18800
H987        H  0.39072356  0.85295664  0.16866330     0.10300
H988        H  0.42106582  0.85987368  0.13970073     0.10400
H989        H  0.39078193  0.86958377  0.06813384     0.10000
H990        H  0.36012003  0.86288478  0.09751955     0.11100
H991        H  0.44204079  0.87415992  0.09649909     0.11200
H992        H  0.41096653  0.85578497  0.04736489     0.13100
H993        H  0.42386151  0.83781540  0.01515180     0.09700
H994        H  0.45259978  0.83685134  0.49349345     0.11700
H995        H  0.49921324  0.89069150  0.03952583     0.08400
H996        H  0.47018797  0.89067672  0.06579558     0.11100
C997        C  0.48465146  0.86907517  0.39585704    -0.03500
C998        C  0.48282646  0.88764471  0.39444010    -0.06100
C999        C  0.47012097  0.88945779  0.37399319    -0.21200
C1000       C  0.45914670  0.87288418  0.35438530     0.24500
C1001       C  0.46091718  0.85426005  0.35582982    -0.18700
C1002       C  0.47359684  0.85243222  0.37628630    -0.08700
C1003       C  0.44496633  0.87502434  0.33401379    -0.19000
C1004       C  0.43838353  0.86368889  0.31001967    -0.23800
C1005       C  0.42201274  0.86394148  0.29190950     0.26600
C1006       C  0.40797348  0.84509445  0.27721286    -0.20600
C1007       C  0.39103741  0.84396197  0.26200470    -0.10200
C1008       C  0.38798036  0.86179172  0.26096414    -0.10700
C1009       C  0.40276355  0.88107319  0.27446444    -0.03700
C1010       C  0.41964928  0.88215934  0.28976655    -0.18800
H1011       H  0.49104653  0.90073084  0.40931049     0.10300
H1012       H  0.46879912  0.90382426  0.37354333     0.10400
H1013       H  0.45210791  0.84073866  0.34181868     0.10000
H1014       H  0.47451614  0.83784714  0.37695131     0.11100
H1015       H  0.43929603  0.88593434  0.33955772     0.11200
H1016       H  0.44385234  0.85266134  0.30433037     0.13100
H1017       H  0.40964320  0.83094861  0.27835287     0.09700
H1018       H  0.38004927  0.82892742  0.25162299     0.11700
H1019       H  0.40105340  0.89520154  0.27370465     0.08400
H1020       H  0.43070197  0.89721467  0.30001875     0.11100
C1021       C  0.28382979  0.88467478  0.22959170    -0.03500
C1022       C  0.27871777  0.89860238  0.21557003    -0.06100
C1023       C  0.26625236  0.90591247  0.22894476    -0.21200
C1024       C  0.25879300  0.89948120  0.25649914     0.24500
C1025       C  0.26238822  0.88403165  0.26937397    -0.18700
C1026       C  0.27482558  0.87684316  0.25613789    -0.08700
C1027       C  0.24798261  0.90967098  0.27140176    -0.19000
C1028       C  0.24723391  0.91097953  0.29965292    -0.23800
C1029       C  0.23838848  0.92306103  0.31470648     0.26600
C1030       C  0.24411396  0.92924234  0.34284067    -0.20600
C1031       C  0.23748411  0.94211548  0.35689952    -0.10200
C1032       C  0.22500880  0.94904160  0.34297534    -0.10700
C1033       C  0.21825038  0.94173144  0.31547331    -0.03700
C1034       C  0.22469388  0.92884785  0.30159603    -0.18800
H1035       H  0.28545009  0.90489594  0.19515796     0.10300
H1036       H  0.26334241  0.91747162  0.21827331     0.10400
H1037       H  0.25608635  0.87778713  0.28993258     0.10000
H1038       H  0.27818830  0.86574475  0.26724464     0.11100
H1039       H  0.24210963  0.91791471  0.25843219     0.11200
H1040       H  0.25481252  0.90431452  0.31248306     0.13100
H1041       H  0.25437468  0.92472933  0.35367825     0.09700
H1042       H  0.24294491  0.94748297  0.37803704     0.11700
H1043       H  0.20825992  0.94644587  0.30430914     0.08400
H1044       H  0.21901006  0.92372602  0.28052316     0.11100
C1045       C  0.37723353  0.93321603  0.18362958    -0.03500
C1046       C  0.38025533  0.95215228  0.19644088    -0.06100
C1047       C  0.39203335  0.97208982  0.18273005    -0.21200
C1048       C  0.40088366  0.97335411  0.15605893     0.24500
C1049       C  0.39931071  0.95458853  0.14448742    -0.18700
C1050       C  0.38749685  0.93476377  0.15803853    -0.08700
C1051       C  0.41099323  0.99424405  0.14061111    -0.19000
C1052       C  0.41256662  0.99572606  0.11237941    -0.23800
C1053       C  0.42066343  0.01643228  0.09684091     0.26600
C1054       C  0.41458837  0.01605365  0.06875416    -0.20600
C1055       C  0.42049916  0.03534616  0.05434833    -0.10200
C1056       C  0.43254251  0.05528706  0.06794830    -0.10700
C1057       C  0.43968724  0.05563141  0.09538741    -0.03700
C1058       C  0.43399990  0.03652726  0.10957849    -0.18800
H1059       H  0.37237349  0.95134912  0.21603205     0.10300
H1060       H  0.39331646  0.98638578  0.19234685     0.10400
H1061       H  0.40670472  0.95498363  0.12466934     0.10000
H1062       H  0.38559095  0.92036756  0.14788731     0.11100
H1063       H  0.41553324  0.00864220  0.15294762     0.11200
H1064       H  0.40613579  0.98108593  0.09991938     0.13100
H1065       H  0.40460847  0.00076650  0.05824780     0.09700
H1066       H  0.41488160  0.03464574  0.03320846     0.11700
H1067       H  0.44948300  0.07085172  0.10617088     0.08400
H1068       H  0.43996028  0.03767622  0.13058352     0.11100
C1069       C  0.85827557  0.79456817  0.32969633    -0.03500
C1070       C  0.87889659  0.81280678  0.32800399    -0.06100
C1071       C  0.89498723  0.81183469  0.31310836    -0.21200
C1072       C  0.89073587  0.79267204  0.29961764     0.24500
C1073       C  0.87058992  0.77399734  0.30317928    -0.18700
C1074       C  0.85449520  0.77499090  0.31789048    -0.08700
C1075       C  0.90723227  0.79306947  0.28086873    -0.19000
C1076       C  0.90217483  0.77989138  0.25853735    -0.23800
C1077       C  0.91782512  0.78167547  0.23721446     0.26600
C1078       C  0.91236443  0.76378020  0.21996489    -0.20600
C1079       C  0.92576657  0.76519342  0.19809684    -0.10200
C1080       C  0.94487649  0.78464496  0.19285973    -0.10700
C1081       C  0.95049791  0.80251098  0.21034582    -0.03700
C1082       C  0.93708692  0.80108740  0.23223874    -0.18800
H1083       H  0.88233752  0.82810722  0.33702802     0.10300
H1084       H  0.91047289  0.82634517  0.31100445     0.10400
H1085       H  0.86700812  0.75864977  0.29425036     0.10000
H1086       H  0.83890244  0.76054712  0.31934505     0.11100
H1087       H  0.92368300  0.80554725  0.28448830     0.11200
H1088       H  0.88566570  0.76757210  0.25489008     0.13100
H1089       H  0.89754678  0.74871627  0.22323077     0.09700
H1090       H  0.92097466  0.75109564  0.18505771     0.11700
H1091       H  0.96504676  0.81775677  0.20677929     0.08400
H1092       H  0.94157656  0.81546967  0.24445995     0.11100
C1093       C  0.93716997  0.78678387  0.07233900    -0.03500
C1094       C  0.93105470  0.80227044  0.07715233    -0.06100
C1095       C  0.91450117  0.80201318  0.06181836    -0.21200
C1096       C  0.90370728  0.78653736  0.04083520     0.24500
C1097       C  0.90977783  0.77097240  0.03584656    -0.18700
C1098       C  0.92625188  0.77106273  0.05151454    -0.08700
C1099       C  0.88618029  0.78724298  0.02513300    -0.19000
C1100       C  0.87489388  0.78649751  0.51194875    -0.23800
C1101       C  0.86090107  0.79124678  0.49386270     0.26600
C1102       C  0.83918973  0.77547919  0.49030644    -0.20600
C1103       C  0.82610387  0.77895662  0.47192543    -0.10200
C1104       C  0.83456680  0.79827676  0.45664026    -0.10700
C1105       C  0.85585635  0.81447735  0.46147182    -0.03700
C1106       C  0.86875586  0.81116441  0.47999600    -0.18800
H1107       H  0.93882462  0.81445487  0.09320834     0.10300
H1108       H  0.91017550  0.81412878  0.06632722     0.10400
H1109       H  0.89111580  0.75991983  0.53395597     0.10000
H1110       H  0.93037663  0.75875385  0.04740205     0.11100
H1111       H  0.87965251  0.79651032  0.03444661     0.11200
H1112       H  0.86716320  0.77297511  0.52637924     0.13100
H1113       H  0.83250053  0.76013566  0.50110257     0.09700
H1114       H  0.80974212  0.76618781  0.46867684     0.11700
H1115       H  0.86274467  0.82972614  0.45040949     0.08400
H1116       H  0.84580551  0.78493152  0.01604240     0.11100
C1117       C  0.04187865  0.84215710  0.06409729    -0.03500
C1118       C  0.03723189  0.85746402  0.05308234    -0.06100
C1119       C  0.04963872  0.87122642  0.03151256    -0.21200
C1120       C  0.06678463  0.86985415  0.02023000     0.24500
C1121       C  0.07154844  0.85463142  0.03142333    -0.18700
C1122       C  0.05920118  0.84093638  0.05307273    -0.08700
C1123       C  0.07991637  0.88532942  0.99794391    -0.19000
C1124       C  0.09882608  0.88512594  0.47971768    -0.23800
C1125       C  0.11379385  0.90220117  0.46026970     0.26600
C1126       C  0.13302811  0.90311762  0.45329515    -0.20600
C1127       C  0.14833348  0.92000648  0.43694297    -0.10200
C1128       C  0.14455744  0.93618928  0.42695703    -0.10700
C1129       C  0.12479467  0.93459169  0.43266128    -0.03700
C1130       C  0.10954466  0.91776012  0.44907290    -0.18800
H1131       H  0.02410592  0.85895277  0.06128280     0.10300
H1132       H  0.04580123  0.88299360  0.02357118     0.10400
H1133       H  0.08504277  0.85347286  0.02412531     0.10000
H1134       H  0.06326064  0.82938731  0.06119322     0.11100
H1135       H  0.07902134  0.89993769  0.99608519     0.11200
H1136       H  0.09986058  0.87058906  0.48119003     0.13100
H1137       H  0.13653149  0.89113306  0.46131040     0.09700
H1138       H  0.16330357  0.92063244  0.43264431     0.11700
H1139       H  0.12126769  0.94663859  0.42499213     0.08400
H1140       H  0.09453219  0.91710004  0.45297077     0.11100
C1141       C  0.04992135  0.84128765  0.18551668    -0.03500
C1142       C  0.06266444  0.83568733  0.20149388    -0.06100
C1143       C  0.07858348  0.85082977  0.21931519    -0.21200
C1144       C  0.08249177  0.87208397  0.22124407     0.24500
C1145       C  0.06971359  0.87771185  0.20541104    -0.18700
C1146       C  0.05360776  0.86250127  0.18785513    -0.08700
C1147       C  0.09911998  0.88752748  0.24112479    -0.19000
C1148       C  0.11022181  0.90919452  0.23747776    -0.23800
C1149       C  0.12612428  0.92454891  0.25817421     0.26600
C1150       C  0.14300384  0.94467842  0.24912054    -0.20600
C1151       C  0.15745790  0.95988741  0.26837351    -0.10200
C1152       C  0.15492819  0.95549258  0.29716730    -0.10700
C1153       C  0.13810612  0.93531977  0.30616396    -0.03700
C1154       C  0.12396916  0.92002258  0.28696881    -0.18800
H1155       H  0.06035330  0.81955095  0.20024172     0.10300
H1156       H  0.08801872  0.84598105  0.23145661     0.10400
H1157       H  0.07184253  0.89375877  0.20693136     0.10000
H1158       H  0.04415607  0.86744298  0.17592702     0.11100
H1159       H  0.10283977  0.88064350  0.25887243     0.11200
H1160       H  0.10804441  0.91595396  0.21837350     0.13100
H1161       H  0.14493417  0.94867893  0.22710707     0.09700
H1162       H  0.17015844  0.97532795  0.26083370     0.11700
H1163       H  0.13574739  0.93141305  0.32821510     0.08400
H1164       H  0.11092019  0.90496278  0.29489042     0.11100
C1165       C  0.00000350  0.73727444  0.06667611    -0.03500
C1166       C  0.98568609  0.71486619  0.06872751    -0.06100
C1167       C  0.99118297  0.70015838  0.05786131    -0.21200
C1168       C  0.01114001  0.70765334  0.04515097     0.24500
C1169       C  0.02461623  0.72995404  0.04098702    -0.18700
C1170       C  0.01910739  0.74460340  0.05160496    -0.08700
C1171       C  0.01842575  0.69235708  0.03767294    -0.19000
C1172       C  0.03847092  0.69718176  0.04390985    -0.23800
C1173       C  0.04870620  0.68466854  0.03504832     0.26600
C1174       C  0.06982983  0.69234114  0.04374192    -0.20600
C1175       C  0.08196445  0.68431053  0.03186109    -0.10200
C1176       C  0.07315082  0.66820952  0.01125101    -0.10700
C1177       C  0.05082290  0.65737172  0.50195989    -0.03700
C1178       C  0.03927759  0.66722342  0.01607794    -0.18800
H1179       H  0.97090075  0.70868861  0.08034691     0.10300
H1180       H  0.98047031  0.68301048  0.06095511     0.10400
H1181       H  0.03983120  0.73610374  0.03041375     0.10000
H1182       H  0.03040947  0.76172033  0.04939149     0.11100
H1183       H  0.00710284  0.67708313  0.02809373     0.11200
H1184       H  0.04849958  0.71199495  0.05551243     0.13100
H1185       H  0.07746426  0.70560210  0.05848028     0.09700
H1186       H  0.09869755  0.69168302  0.03745038     0.11700
H1187       H  0.04426019  0.64539634  0.48543884     0.08400
H1188       H  0.02188753  0.65816093  0.50620685     0.11100
C1189       C  0.17399395  0.71412042  0.01849051    -0.03500
C1190       C  0.17502953  0.73403948  0.02245587    -0.06100
C1191       C  0.18789724  0.74818874  0.04348149    -0.21200
C1192       C  0.19983993  0.74268178  0.06113646     0.24500
C1193       C  0.19871094  0.72268795  0.05729113    -0.18700
C1194       C  0.18587796  0.70856044  0.03627173    -0.08700
C1195       C  0.21446330  0.75887340  0.08177786    -0.19000
C1196       C  0.22215455  0.75393324  0.10445397    -0.23800
C1197       C  0.23881454  0.77064314  0.12283224     0.26600
C1198       C  0.25251400  0.76565240  0.13748858    -0.20600
C1199       C  0.26973367  0.78158072  0.15278489    -0.10200
C1200       C  0.27346152  0.80279336  0.15385749    -0.10700
C1201       C  0.25898330  0.80742642  0.14052345    -0.03700
C1202       C  0.24180121  0.79152921  0.12529995    -0.18800
H1203       H  0.16607997  0.73882578  0.00913201     0.10300
H1204       H  0.18865165  0.76357673  0.04584063     0.10400
H1205       H  0.20818771  0.71809301  0.06977034     0.10000
H1206       H  0.18554202  0.69339391  0.03371143     0.11100
H1207       H  0.21951630  0.77559940  0.07736074     0.11200
H1208       H  0.21718685  0.73722519  0.10886122     0.13100
H1209       H  0.25035104  0.74958906  0.13626922     0.09700
H1210       H  0.28043681  0.77741199  0.16311830     0.11700
H1211       H  0.26112605  0.82348690  0.14138323     0.08400
H1212       H  0.23104099  0.79578565  0.11540223     0.11100
C1213       C  0.29079630  0.81660427  0.28200464    -0.03500
C1214       C  0.28604357  0.82566231  0.30505635    -0.06100
C1215       C  0.26891338  0.81256432  0.32288502    -0.21200
C1216       C  0.25633284  0.79017948  0.31818003     0.24500
C1217       C  0.26101551  0.78124549  0.29494182    -0.18700
C1218       C  0.27804688  0.79422718  0.27728302    -0.08700
C1219       C  0.23809098  0.77657512  0.33720690    -0.19000
C1220       C  0.23050649  0.75524000  0.34061587    -0.23800
C1221       C  0.21243625  0.74084744  0.35929375     0.26600
C1222       C  0.21080131  0.72138376  0.36787162    -0.20600
C1223       C  0.19426136  0.70720380  0.38544388    -0.10200
C1224       C  0.17865683  0.71194029  0.39458554    -0.10700
C1225       C  0.17980892  0.73109377  0.38534006    -0.03700
C1226       C  0.19659619  0.74548664  0.36791651    -0.18800
H1227       H  0.29529760  0.84287832  0.30903567     0.10300
H1228       H  0.26548789  0.81992474  0.34041233     0.10400
H1229       H  0.25127171  0.76428872  0.28978392     0.10000
H1230       H  0.28094951  0.78666397  0.25952294     0.11100
H1231       H  0.23146133  0.78453986  0.34947380     0.11200
H1232       H  0.23862797  0.74792293  0.33028373     0.13100
H1233       H  0.22259593  0.71724839  0.36128097     0.09700
H1234       H  0.19377843  0.69253473  0.39205476     0.11700
H1235       H  0.16804721  0.73520050  0.39213330     0.08400
H1236       H  0.19698493  0.76004522  0.36113059     0.11100
C1237       C  0.91911722  0.58759420  0.23576961    -0.03500
C1238       C  0.91295817  0.59348449  0.21104784    -0.06100
C1239       C  0.92707661  0.61281235  0.19745934    -0.21200
C1240       C  0.94725015  0.62697644  0.20892509     0.24500
C1241       C  0.95382714  0.62060649  0.23291461    -0.18700
C1242       C  0.93993218  0.60093484  0.24603601    -0.08700
C1243       C  0.96042181  0.64881096  0.19654210    -0.19000
C1244       C  0.97023572  0.66673638  0.21252170    -0.23800
C1245       C  0.97906150  0.68874565  0.20067239     0.26600
C1246       C  0.97493364  0.70356262  0.21442336    -0.20600
C1247       C  0.98063398  0.72344269  0.20210809    -0.10200
C1248       C  0.99138513  0.72921991  0.17635646    -0.10700
C1249       C  0.99685360  0.71504353  0.16349174    -0.03700
C1250       C  0.99052462  0.69483390  0.17537080    -0.18800
H1251       H  0.89694048  0.58355694  0.20291351     0.10300
H1252       H  0.92171386  0.61735586  0.17889309     0.10400
H1253       H  0.96941574  0.63109941  0.24193221     0.10000
H1254       H  0.94491751  0.59689106  0.26534925     0.11100
H1255       H  0.95941770  0.65045671  0.17405231     0.11200
H1256       H  0.96901859  0.66511401  0.23518171     0.13100
H1257       H  0.96616437  0.69922217  0.23400241     0.09700
H1258       H  0.97600973  0.73398790  0.21216293     0.11700
H1259       H  0.00477569  0.71900554  0.14330200     0.08400
H1260       H  0.99413243  0.68381143  0.16453260     0.11100
C1261       C  0.81587721  0.53168105  0.22640271    -0.03500
C1262       C  0.80115897  0.51210807  0.21345546    -0.06100
C1263       C  0.78860561  0.51183058  0.19123414    -0.21200
C1264       C  0.79041650  0.53104600  0.18119537     0.24500
C1265       C  0.80537626  0.55074981  0.19392125    -0.18700
C1266       C  0.81791520  0.55100705  0.21632311    -0.08700
C1267       C  0.77561874  0.52931395  0.15844470    -0.19000
C1268       C  0.77542451  0.54614908  0.14635348    -0.23800
C1269       C  0.75827412  0.54320794  0.12678792     0.26600
C1270       C  0.75202932  0.55876972  0.12654432    -0.20600
C1271       C  0.73447758  0.55553983  0.11072207    -0.10200
C1272       C  0.72287082  0.53669551  0.09454469    -0.10700
C1273       C  0.72991762  0.52170340  0.09349310    -0.03700
C1274       C  0.74748806  0.52494426  0.10936948    -0.18800
H1275       H  0.79911988  0.49689302  0.22068097     0.10300
H1276       H  0.77721623  0.49639629  0.18200131     0.10400
H1277       H  0.80740393  0.56600514  0.18715805     0.10000
H1278       H  0.82920313  0.56636826  0.22577287     0.11100
H1279       H  0.76339338  0.51304881  0.15246994     0.11200
H1280       H  0.78682068  0.56256656  0.15263241     0.13100
H1281       H  0.76022303  0.57308865  0.13955828     0.09700
H1282       H  0.72960096  0.56749560  0.11190708     0.11700
H1283       H  0.72155541  0.50718900  0.08088632     0.08400
H1284       H  0.75239787  0.51302691  0.10819316     0.11100
C1285       C  0.81218050  0.53601841  0.34925600    -0.03500
C1286       C  0.81891147  0.54973692  0.37269550    -0.06100
C1287       C  0.80388071  0.54959732  0.39138352    -0.21200
C1288       C  0.78179887  0.53618291  0.38669261     0.24500
C1289       C  0.77510065  0.52265054  0.36302932    -0.18700
C1290       C  0.79009669  0.52250970  0.34466521    -0.08700
C1291       C  0.76628872  0.53555699  0.40783350    -0.19000
C1292       C  0.74572273  0.52942011  0.40201320    -0.23800
C1293       C  0.72985457  0.52713375  0.42374441     0.26600
C1294       C  0.71194102  0.52866546  0.41601574    -0.20600
C1295       C  0.69629452  0.52562621  0.43581179    -0.10200
C1296       C  0.69798902  0.52050772  0.46369559    -0.10700
C1297       C  0.71587720  0.51884858  0.47128232    -0.03700
C1298       C  0.73156510  0.52213072  0.45166265    -0.18800
H1299       H  0.83579533  0.56023897  0.37689860     0.10300
H1300       H  0.80951865  0.55998607  0.40960150     0.10400
H1301       H  0.75829722  0.51165982  0.35901557     0.10000
H1302       H  0.78437159  0.51179627  0.32675539     0.11100
H1303       H  0.77225769  0.54073324  0.42887566     0.11200
H1304       H  0.74028601  0.52626968  0.38050353     0.13100
H1305       H  0.71007442  0.53226779  0.39460370     0.09700
H1306       H  0.68276958  0.52703525  0.42921739     0.11700
H1307       H  0.72099783  0.52058561  0.99312653     0.08400
H1308       H  0.74472685  0.52016789  0.45837295     0.11100
C1309       C  0.92386729  0.58480850  0.34625695    -0.03500
C1310       C  0.93174599  0.60719299  0.34447719    -0.06100
C1311       C  0.95240188  0.62208711  0.35406942    -0.21200
C1312       C  0.96558909  0.61482297  0.36509397     0.24500
C1313       C  0.95705505  0.59254578  0.36896077    -0.18700
C1314       C  0.93646806  0.57774970  0.35976754    -0.08700
C1315       C  0.98843357  0.63030215  0.37166582    -0.19000
C1316       C  0.00366057  0.62558209  0.36467121    -0.23800
C1317       C  0.02659308  0.63791123  0.37316452     0.26600
C1318       C  0.03970884  0.62979392  0.36449433    -0.20600
C1319       C  0.05999405  0.63766110  0.37600274    -0.10200
C1320       C  0.06783339  0.65408505  0.39624591    -0.10700
C1321       C  0.05567838  0.66374254  0.40300516    -0.03700
C1322       C  0.03513947  0.65565112  0.39170019    -0.18800
H1323       H  0.92249413  0.61320495  0.33419066     0.10300
H1324       H  0.95852162  0.63920892  0.35136611     0.10400
H1325       H  0.96659340  0.58649887  0.37835884     0.10000
H1326       H  0.93091250  0.56069005  0.36186562     0.11100
H1327       H  0.99250883  0.64546597  0.38168226     0.11200
H1328       H  0.99870086  0.61083948  0.35282838     0.13100
H1329       H  0.03371819  0.61630232  0.35007330     0.09700
H1330       H  0.06899985  0.62990035  0.37043914     0.11700
H1331       H  0.06123903  0.67624333  0.41885495     0.08400
H1332       H  0.02570283  0.66251162  0.39886462     0.11100
C1333       C  0.71574113  0.18232631  0.34802899    -0.03500
C1334       C  0.71336491  0.20014638  0.35450167    -0.06100
C1335       C  0.72785953  0.21663302  0.37210349    -0.21200
C1336       C  0.74536389  0.21604873  0.38351304     0.24500
C1337       C  0.74773407  0.19813760  0.37741960    -0.18700
C1338       C  0.73302319  0.18142349  0.35991295    -0.08700
C1339       C  0.76000015  0.23397934  0.40258693    -0.19000
C1340       C  0.78053184  0.23980010  0.40778195    -0.23800
C1341       C  0.79459166  0.25790428  0.42712683     0.26600
C1342       C  0.81693787  0.26860477  0.42389755    -0.20600
C1343       C  0.83051426  0.28523154  0.44229778    -0.10200
C1344       C  0.82202802  0.29133571  0.46462395    -0.10700
C1345       C  0.79965918  0.28058660  0.46779294    -0.03700
C1346       C  0.78615558  0.26411893  0.44940517    -0.18800
H1347       H  0.70027266  0.20144430  0.34586039     0.10300
H1348       H  0.72547407  0.23008086  0.37661306     0.10400
H1349       H  0.76070357  0.19682543  0.38639668     0.10000
H1350       H  0.73535041  0.16795595  0.35537671     0.11100
H1351       H  0.75370648  0.24351700  0.41165116     0.11200
H1352       H  0.78758940  0.23168304  0.39675435     0.13100
H1353       H  0.82391815  0.26403615  0.40712245     0.09700
H1354       H  0.84732421  0.29127828  0.94119741     0.11700
H1355       H  0.79249392  0.28465490  0.48486004     0.08400
H1356       H  0.76912930  0.25590351  0.45330640     0.11100
C1357       C  0.81386866  0.27207328  0.09508339    -0.03500
C1358       C  0.81976488  0.25936630  0.11080275    -0.06100
C1359       C  0.80469518  0.24226467  0.12702798    -0.21200
C1360       C  0.78345263  0.23755614  0.12812990     0.24500
C1361       C  0.77727416  0.24962909  0.11149107    -0.18700
C1362       C  0.79236655  0.26676509  0.09520897    -0.08700
C1363       C  0.76848441  0.22030505  0.14737562    -0.19000
C1364       C  0.75157053  0.22020513  0.15916075    -0.23800
C1365       C  0.73792379  0.20460619  0.18100658     0.26600
C1366       C  0.71774715  0.20206671  0.18617712    -0.20600
C1367       C  0.70486694  0.18867060  0.20767688    -0.10200
C1368       C  0.71194874  0.17757005  0.22469523    -0.10700
C1369       C  0.73208425  0.17995420  0.21942782    -0.03700
C1370       C  0.74499423  0.19339151  0.19790267    -0.18800
H1371       H  0.83617218  0.26294460  0.11115643     0.10300
H1372       H  0.80981365  0.23309836  0.13946658     0.10400
H1373       H  0.76086427  0.24596959  0.11098913     0.10000
H1374       H  0.78725026  0.27606676  0.08308860     0.11100
H1375       H  0.77244760  0.20815406  0.15323324     0.11200
H1376       H  0.74773792  0.23245599  0.15326239     0.13100
H1377       H  0.71197812  0.21063181  0.17364719     0.09700
H1378       H  0.68941991  0.18719989  0.21110584     0.11700
H1379       H  0.73806408  0.17175009  0.23226618     0.08400
H1380       H  0.76069471  0.19538804  0.19530062     0.11100
C1381       C  0.86413858  0.36947747  0.11747787    -0.03500
C1382       C  0.87805229  0.37475760  0.14042526    -0.06100
C1383       C  0.88097736  0.39113039  0.15927286    -0.21200
C1384       C  0.86992771  0.40239946  0.15575571     0.24500
C1385       C  0.85623362  0.39722797  0.13263988    -0.18700
C1386       C  0.85332300  0.38099686  0.11394333    -0.08700
C1387       C  0.87336904  0.41993403  0.17572852    -0.19000
C1388       C  0.85828746  0.42531298  0.18057587    -0.23800
C1389       C  0.86079574  0.44287361  0.19972788     0.26600
C1390       C  0.84223681  0.44196923  0.21004779    -0.20600
C1391       C  0.84348966  0.45823118  0.22745954    -0.10200
C1392       C  0.86339584  0.47610761  0.23477884    -0.10700
C1393       C  0.88205910  0.47730189  0.22404501    -0.03700
C1394       C  0.88079663  0.46082483  0.20674901    -0.18800
H1395       H  0.88686264  0.36645839  0.14361338     0.10300
H1396       H  0.89184691  0.39496080  0.17670130     0.10400
H1397       H  0.84805847  0.40602200  0.12844094     0.10000
H1398       H  0.84271904  0.37772410  0.09635120     0.11100
H1399       H  0.88827758  0.42795811  0.18732980     0.11200
H1400       H  0.84270448  0.41571784  0.17087566     0.13100
H1401       H  0.82660974  0.42848025  0.20475997     0.09700
H1402       H  0.82877227  0.45675494  0.23521262     0.11700
H1403       H  0.89765164  0.49084248  0.22927128     0.08400
H1404       H  0.89543050  0.46237744  0.19860989     0.11100
C1405       C  0.85936609  0.47983855  0.35678982    -0.03500
C1406       C  0.84057517  0.46867770  0.37279627    -0.06100
C1407       C  0.83911328  0.45484032  0.39424650    -0.21200
C1408       C  0.85645582  0.45209407  0.40043532     0.24500
C1409       C  0.87525922  0.46317104  0.38443338    -0.18700
C1410       C  0.87670117  0.47693907  0.36286605    -0.08700
C1411       C  0.85397936  0.43659124  0.42252969    -0.19000
C1412       C  0.87051878  0.43879049  0.43780236    -0.23800
C1413       C  0.86883301  0.42211803  0.45757714     0.26600
C1414       C  0.88738290  0.42141634  0.46352805    -0.20600
C1415       C  0.88630146  0.40465065  0.47947222    -0.10200
C1416       C  0.86661852  0.38831416  0.49008147    -0.10700
C1417       C  0.84825266  0.38978810  0.48574217    -0.03700
C1418       C  0.84932583  0.40654654  0.46965166    -0.18800
H1419       H  0.82688574  0.47047613  0.36862937     0.10300
H1420       H  0.82439598  0.44627437  0.40610000     0.10400
H1421       H  0.88866529  0.46080487  0.38798500     0.10000
H1422       H  0.89130433  0.48508970  0.35073492     0.11100
H1423       H  0.83804374  0.42288571  0.42578315     0.11200
H1424       H  0.88631733  0.45273163  0.43438354     0.13100
H1425       H  0.90265313  0.43339199  0.45484024     0.09700
H1426       H  0.90081390  0.40414930  0.48277561     0.11700
H1427       H  0.83290195  0.37756839  0.49390908     0.08400
H1428       H  0.83480959  0.40701232  0.46650754     0.11100
C1429       C  0.89443837  0.28590260  0.01148660    -0.03500
C1430       C  0.90698196  0.27917416  0.02568053    -0.06100
C1431       C  0.91406724  0.26659793  0.01177649    -0.21200
C1432       C  0.90751275  0.25915813  0.48526000     0.24500
C1433       C  0.89400340  0.26488028  0.47149252    -0.18700
C1434       C  0.88699000  0.27742487  0.48503371    -0.08700
C1435       C  0.91697319  0.24745248  0.47070949    -0.19000
C1436       C  0.91865703  0.24658573  0.44251995    -0.23800
C1437       C  0.92937349  0.23607358  0.42803051     0.26600
C1438       C  0.93588141  0.24129427  0.39991422    -0.20600
C1439       C  0.94751005  0.23304878  0.38638131    -0.10200
C1440       C  0.95281726  0.21941345  0.40081540    -0.10700
C1441       C  0.94511201  0.21313426  0.42824685    -0.03700
C1442       C  0.93346491  0.22119260  0.44161528    -0.18800
H1443       H  0.91211967  0.28445245  0.04693857     0.10300
H1444       H  0.92429468  0.26216280  0.02285729     0.10400
H1445       H  0.88894366  0.25999114  0.45015815     0.10000
H1446       H  0.87720536  0.28215518  0.47338973     0.11100
H1447       H  0.92403011  0.24053868  0.48405163     0.11200
H1448       H  0.91319022  0.25506664  0.42926474     0.13100
H1449       H  0.93265999  0.25244935  0.38870154     0.09700
H1450       H  0.95334074  0.23827109  0.36534222     0.11700
H1451       H  0.94873145  0.20239926  0.43982174     0.08400
H1452       H  0.92802213  0.21585286  0.46269100     0.11100
C1453       C  0.03586554  0.18704052  0.29928320    -0.03500
C1454       C  0.03416100  0.19218463  0.27141142    -0.06100
C1455       C  0.04947012  0.19465529  0.25139795    -0.21200
C1456       C  0.06710442  0.19258408  0.25891199     0.24500
C1457       C  0.06885529  0.18756054  0.28680001    -0.18700
C1458       C  0.05344573  0.18476532  0.30663765    -0.08700
C1459       C  0.08269084  0.19438283  0.23706288    -0.19000
C1460       C  0.10350056  0.20144472  0.24255982    -0.23800
C1461       C  0.11891287  0.20184137  0.22144592     0.26600
C1462       C  0.14088009  0.21679394  0.22448440    -0.20600
C1463       C  0.15590164  0.21676777  0.20592945    -0.10200
C1464       C  0.14934908  0.20137147  0.18435607    -0.10700
C1465       C  0.12736125  0.18635625  0.18140659    -0.03700
C1466       C  0.11233494  0.18665764  0.19958947    -0.18800
H1467       H  0.02086749  0.19405043  0.26498479     0.10300
H1468       H  0.04759879  0.19829744  0.23001505     0.10400
H1469       H  0.08186293  0.18523983  0.29326161     0.10000
H1470       H  0.05538459  0.18086197  0.32786989     0.11100
H1471       H  0.07690979  0.19021389  0.21577425     0.11200
H1472       H  0.10970311  0.20761855  0.26324612     0.13100
H1473       H  0.14642222  0.22853636  0.24125461     0.09700
H1474       H  0.17269593  0.22859020  0.20874878     0.11700
H1475       H  0.12172723  0.17440288  0.16488520     0.08400
H1476       H  0.09562023  0.17455979  0.19693235     0.11100
C1477       C  0.14810595  0.19530834  0.06317392    -0.03500
C1478       C  0.13443000  0.17554069  0.04981671    -0.06100
C1479       C  0.12066078  0.17434372  0.02870152    -0.21200
C1480       C  0.12037253  0.19285127  0.02015622     0.24500
C1481       C  0.13397349  0.21268447  0.03349725    -0.18700
C1482       C  0.14771833  0.21387576  0.05481387    -0.08700
C1483       C  0.10623374  0.18881221  0.49786386    -0.19000
C1484       C  0.10707762  0.20657935  0.98186053    -0.23800
C1485       C  0.09216693  0.20156508  0.46007066     0.26600
C1486       C  0.09071080  0.21969744  0.45295583    -0.20600
C1487       C  0.07351308  0.21738336  0.43717773    -0.10200
C1488       C  0.05756653  0.19685975  0.42789285    -0.10700
C1489       C  0.05980213  0.17888650  0.43343116    -0.03700
C1490       C  0.07696522  0.18120300  0.44933786    -0.18800
H1491       H  0.13423114  0.16089397  0.05576651     0.10300
H1492       H  0.11008815  0.15741965  0.52202072     0.10400
H1493       H  0.13371843  0.22716849  0.02807818     0.10000
H1494       H  0.15796998  0.22932121  0.06480990     0.11100
H1495       H  0.09162790  0.17318348  0.49702589     0.11200
H1496       H  0.12087331  0.22268155  0.98427170     0.13100
H1497       H  0.09887795  0.23719334  0.96395122     0.09700
H1498       H  0.07241155  0.23159878  0.43292986     0.11700
H1499       H  0.04793293  0.16290274  0.42624353     0.08400
H1500       H  0.07809563  0.16700309  0.45347578     0.11100
C1501       C  0.96040614  0.14990327  0.45257426    -0.03500
C1502       C  0.95337233  0.15900666  0.47305843    -0.06100
C1503       C  0.93590650  0.14571887  0.49041647    -0.21200
C1504       C  0.92516751  0.12304239  0.48792647     0.24500
C1505       C  0.93243849  0.11402324  0.46758311    -0.18700
C1506       C  0.94980033  0.12722806  0.45035511    -0.08700
C1507       C  0.90606810  0.10935318  0.50600844    -0.19000
C1508       C  0.89956142  0.08784361  0.01169924    -0.23800
C1509       C  0.88118312  0.07361452  0.03020809     0.26600
C1510       C  0.88090514  0.05565504  0.04218702    -0.20600
C1511       C  0.86443248  0.04185619  0.06009737    -0.10200
C1512       C  0.84750728  0.04541489  0.06638955    -0.10700
C1513       C  0.84725310  0.06294401  0.05364363    -0.03700
C1514       C  0.86397189  0.07697222  0.03575175    -0.18800
H1515       H  0.96091013  0.17638524  0.47508312     0.10300
H1516       H  0.93062254  0.15320501  0.50567117     0.10400
H1517       H  0.92442552  0.09678788  0.46406060     0.10000
H1518       H  0.95457600  0.11956751  0.43468740     0.11100
H1519       H  0.89736912  0.11595925  0.01442946     0.11200
H1520       H  0.90914914  0.08111657  0.00449089     0.13100
H1521       H  0.89373744  0.05245582  0.03806402     0.09700
H1522       H  0.86510930  0.02842311  0.06927642     0.11700
H1523       H  0.83441877  0.06608329  0.05797619     0.08400
H1524       H  0.86328147  0.09028201  0.02627921     0.11100
C1525       C  0.84100843  0.04554173  0.19172692    -0.03500
C1526       C  0.84126680  0.06492938  0.19709237    -0.06100
C1527       C  0.85311642  0.07819574  0.21940024    -0.21200
C1528       C  0.86487612  0.07236799  0.23695429     0.24500
C1529       C  0.86434417  0.05277265  0.23186499    -0.18700
C1530       C  0.85249374  0.03951086  0.20957445    -0.08700
C1531       C  0.87885461  0.08808041  0.25857797    -0.19000
C1532       C  0.88786520  0.08324663  0.27988645    -0.23800
C1533       C  0.90453592  0.10012169  0.29811708     0.26600
C1534       C  0.92020742  0.09646204  0.30964833    -0.20600
C1535       C  0.93762398  0.11292001  0.32407063    -0.10200
C1536       C  0.93960442  0.13332762  0.32740015    -0.10700
C1537       C  0.92317484  0.13650226  0.31742267    -0.03700
C1538       C  0.90577565  0.12005434  0.30306679    -0.18800
H1539       H  0.83250173  0.07001010  0.18387312     0.10300
H1540       H  0.85333510  0.09323112  0.22271951     0.10400
H1541       H  0.87355582  0.04783014  0.24429457     0.10000
H1542       H  0.85263109  0.02467125  0.20608550     0.11100
H1543       H  0.88267280  0.10462267  0.25574131     0.11200
H1544       H  0.88438844  0.06683806  0.28281668     0.13100
H1545       H  0.91945569  0.08115757  0.30646587     0.09700
H1546       H  0.94988877  0.10985883  0.33178689     0.11700
H1547       H  0.92396570  0.15186247  0.32015582     0.08400
H1548       H  0.89350394  0.12316603  0.29560712     0.11100
C1549       C  0.93990962  0.38023419  0.06009984    -0.03500
C1550       C  0.95915127  0.38380735  0.04833494    -0.06100
C1551       C  0.97852947  0.39659195  0.06258644    -0.21200
C1552       C  0.97887129  0.40579423  0.08879398     0.24500
C1553       C  0.95975776  0.40358244  0.09924010    -0.18700
C1554       C  0.94052778  0.39083735  0.08514087    -0.08700
C1555       C  0.99911065  0.41689030  0.10519614    -0.19000
C1556       C  0.99958053  0.41770735  0.13349887    -0.23800
C1557       C  0.01966278  0.42663967  0.15011383     0.26600
C1558       C  0.01910156  0.41855725  0.17712772    -0.20600
C1559       C  0.03809125  0.42485365  0.19194305    -0.10200
C1560       C  0.05786867  0.43944251  0.17992130    -0.10700
C1561       C  0.05826283  0.44877720  0.15393462    -0.03700
C1562       C  0.03941175  0.44256902  0.13925009    -0.18800
H1563       H  0.95903449  0.37558758  0.02926269     0.10300
H1564       H  0.99311782  0.39832589  0.05386244     0.10400
H1565       H  0.95946346  0.41115760  0.11868115     0.10000
H1566       H  0.92584479  0.38837091  0.09455392     0.11100
H1567       H  0.01394847  0.42278721  0.09366241     0.11200
H1568       H  0.98465258  0.40980748  0.14509100     0.13100
H1569       H  0.00402228  0.40648894  0.18616391     0.09700
H1570       H  0.03740327  0.41729458  0.21178125     0.11700
H1571       H  0.07338078  0.46023663  0.14434285     0.08400
H1572       H  0.04044930  0.44987256  0.11911630     0.11100
C1573       C  0.10031911  0.38928296  0.23365173    -0.03500
C1574       C  0.08783705  0.36950262  0.21988517    -0.06100
C1575       C  0.08096298  0.34997851  0.23423486    -0.21200
C1576       C  0.08650228  0.34985388  0.26249034     0.24500
C1577       C  0.10015450  0.36975878  0.27552126    -0.18700
C1578       C  0.10681836  0.38912427  0.26134450    -0.08700
C1579       C  0.07749636  0.32874972  0.27755177    -0.19000
C1580       C  0.07775232  0.32659106  0.30571221    -0.23800
C1581       C  0.06712883  0.30528214  0.32044795     0.26600
C1582       C  0.06177211  0.30428298  0.34899643    -0.20600
C1583       C  0.04990810  0.28429620  0.36270417    -0.10200
C1584       C  0.04321681  0.26495958  0.34801235    -0.10700
C1585       C  0.04996527  0.26610030  0.32012490    -0.03700
C1586       C  0.06184424  0.28591821  0.30658098    -0.18800
H1587       H  0.08259531  0.36912565  0.19860293     0.10300
H1588       H  0.07072097  0.33489481  0.22344955     0.10400
H1589       H  0.10564939  0.37066053  0.29672946     0.10000
H1590       H  0.11682454  0.40416790  0.27237273     0.11100
H1591       H  0.06909517  0.31435913  0.26469610     0.11200
H1592       H  0.08466061  0.34085443  0.31891756     0.13100
H1593       H  0.06601418  0.31897625  0.36043220     0.09700
H1594       H  0.04500342  0.28393889  0.38418016     0.11700
H1595       H  0.04545771  0.25146747  0.30836917     0.08400
H1596       H  0.06651245  0.28582766  0.28514024     0.11100
C1597       C  0.17069669  0.46435417  0.28079943    -0.03500
C1598       C  0.16312698  0.45866302  0.30834742    -0.06100
C1599       C  0.17526766  0.45544075  0.32856373    -0.21200
C1600       C  0.19500251  0.45734323  0.32158552     0.24500
C1601       C  0.20244396  0.46279352  0.29396081    -0.18700
C1602       C  0.19049653  0.46629957  0.27390416    -0.08700
C1603       C  0.20822793  0.45521330  0.34387112    -0.19000
C1604       C  0.22253998  0.44881455  0.33877140    -0.23800
C1605       C  0.23747669  0.44886290  0.36028718     0.26600
C1606       C  0.24581979  0.43504918  0.35695596    -0.20600
C1607       C  0.26116935  0.43589189  0.37558795    -0.10200
C1608       C  0.26895569  0.45099689  0.39756614    -0.10700
C1609       C  0.26051208  0.46473196  0.40098200    -0.03700
C1610       C  0.24490486  0.46361459  0.38270149    -0.18800
H1611       H  0.14795204  0.45697764  0.31439435     0.10300
H1612       H  0.16924035  0.45146143  0.34972672     0.10400
H1613       H  0.21781714  0.46499523  0.28790549     0.10000
H1614       H  0.19683862  0.47056249  0.25290735     0.11100
H1615       H  0.20589390  0.45885436  0.36515113     0.11200
H1616       H  0.22333779  0.44314694  0.31801143     0.13100
H1617       H  0.24054738  0.42366915  0.33975334     0.09700
H1618       H  0.26733798  0.42509486  0.37237438     0.11700
H1619       H  0.26603643  0.47644345  0.41781644     0.08400
H1620       H  0.23927199  0.47486993  0.38563864     0.11100
C1621       C  0.18204032  0.45375040  0.15103249    -0.03500
C1622       C  0.17639150  0.43347786  0.13952325    -0.06100
C1623       C  0.19109971  0.43087003  0.12358041    -0.21200
C1624       C  0.21160793  0.44848074  0.11856160     0.24500
C1625       C  0.21771904  0.46838753  0.13161216    -0.18700
C1626       C  0.20305194  0.47099654  0.14757539    -0.08700
C1627       C  0.22585658  0.44582192  0.09871301    -0.19000
C1628       C  0.24041021  0.46232347  0.08309763    -0.23800
C1629       C  0.25381721  0.46026951  0.06130647     0.26600
C1630       C  0.27257431  0.47902623  0.05312405    -0.20600
C1631       C  0.28516164  0.47840424  0.03152263    -0.10200
C1632       C  0.27913306  0.45898526  0.01729281    -0.10700
C1633       C  0.26037892  0.44009916  0.02553088    -0.03700
C1634       C  0.24780468  0.44070669  0.04734786    -0.18800
H1635       H  0.16042091  0.41976764  0.14215068     0.10300
H1636       H  0.18614234  0.41527577  0.11415819     0.10400
H1637       H  0.23370705  0.48207770  0.12929893     0.10000
H1638       H  0.20802813  0.48673080  0.15653102     0.11100
H1639       H  0.22332334  0.42968082  0.09576377     0.11200
H1640       H  0.24254791  0.47832178  0.08592432     0.13100
H1641       H  0.27746151  0.49431856  0.06339886     0.09700
H1642       H  0.29947613  0.49326830  0.02571820     0.11700
H1643       H  0.25378270  0.42793105  0.51422439     0.08400
H1644       H  0.23314880  0.42602048  0.05253197     0.11100
C1645       C  0.12272043  0.61011138  0.02375570    -0.03500
C1646       C  0.14187784  0.61681126  0.03826990    -0.06100
C1647       C  0.14380165  0.60286923  0.05673651    -0.21200
C1648       C  0.12680571  0.58168736  0.06079145     0.24500
C1649       C  0.10719842  0.57522962  0.04731680    -0.18700
C1650       C  0.10515992  0.58940993  0.02905350    -0.08700
C1651       C  0.13059075  0.56722091  0.07921759    -0.19000
C1652       C  0.11940023  0.54536683  0.07829679    -0.23800
C1653       C  0.12468440  0.53138398  0.09583337     0.26600
C1654       C  0.11538324  0.50923045  0.08946296    -0.20600
C1655       C  0.11970336  0.49560695  0.10584557    -0.10200
C1656       C  0.13353975  0.50389140  0.12895937    -0.10700
C1657       C  0.14296983  0.52607948  0.13502450    -0.03700
C1658       C  0.13848027  0.53951994  0.11901855    -0.18800
H1659       H  0.15441040  0.63043887  0.53224760     0.10300
H1660       H  0.15896027  0.60845716  0.06718098     0.10400
H1661       H  0.09352164  0.55927877  0.05060256     0.10000
H1662       H  0.09018696  0.58386468  0.01815722     0.11100
H1663       H  0.14447161  0.57533246  0.09260541     0.11200
H1664       H  0.10649773  0.53733764  0.06330594     0.13100
H1665       H  0.10457291  0.50238576  0.07189314     0.09700
H1666       H  0.11189840  0.47856787  0.10075116     0.11700
H1667       H  0.15345446  0.53312741  0.15285691     0.08400
H1668       H  0.14556620  0.55612951  0.12566721     0.11100
C1669       C  0.13335880  0.52193277  0.25422495    -0.03500
C1670       C  0.15236912  0.54190144  0.25741297    -0.06100
C1671       C  0.15278117  0.55808712  0.27426999    -0.21200
C1672       C  0.13428229  0.55450331  0.28837196     0.24500
C1673       C  0.11492700  0.53523516  0.28331030    -0.18700
C1674       C  0.11449614  0.51911728  0.26652336    -0.08700
C1675       C  0.13576681  0.57069557  0.30898692    -0.19000
C1676       C  0.12298302  0.56497545  0.33164703    -0.23800
C1677       C  0.12425524  0.58031795  0.35341466     0.26600
C1678       C  0.10609471  0.57442173  0.36985328    -0.20600
C1679       C  0.10648354  0.58809057  0.39092349    -0.10200
C1680       C  0.12517871  0.60791497  0.39628699    -0.10700
C1681       C  0.14352797  0.61368730  0.38013874    -0.03700
C1682       C  0.14309156  0.60002372  0.35890932    -0.18800
H1683       H  0.16711809  0.54469313  0.24788466     0.10300
H1684       H  0.16777625  0.57300038  0.27737151     0.10400
H1685       H  0.10010642  0.53234593  0.29267134     0.10000
H1686       H  0.09947054  0.50413968  0.26399488     0.11100
H1687       H  0.14825408  0.58736216  0.30603350     0.11200
H1688       H  0.11078909  0.54817629  0.33457243     0.13100
H1689       H  0.09147300  0.55922935  0.36623316     0.09700
H1690       H  0.09208399  0.58306640  0.40303444     0.11700
H1691       H  0.15823367  0.62876150  0.38388072     0.08400
H1692       H  0.15762698  0.60480152  0.34729485     0.11100
Fe1693     Fe  0.15669271  0.48887726  0.70470091     1.65800
Fe1694     Fe  0.11862220  0.44333388  0.67341032     1.73200
Fe1695     Fe  0.11134156  0.45552305  0.73987043     1.54400
O1696       O  0.13838384  0.46334468  0.76501572    -0.82000
O1697       O  0.08963765  0.44083456  0.67447003    -0.80300
O1698       O  0.16701940  0.47766250  0.73671765    -0.84500
O1699       O  0.14941844  0.50629533  0.73266700    -0.79300
O1700       O  0.10538866  0.42462711  0.74067989    -0.81100
O1701       O  0.12744260  0.47007017  0.64673977    -0.83900
C1702       C  0.13230601  0.50379206  0.74321490     0.96900
C1703       C  0.15798232  0.46921266  0.75986111     1.04300
O1704       O  0.12873683  0.46236190  0.70604379    -1.12800
O1705       O  0.14661078  0.44350351  0.66810659    -0.75300
O1706       O  0.17050947  0.47765278  0.67639117    -0.78800
O1707       O  0.11522687  0.48572437  0.74297634    -0.79400
C1708       C  0.16539640  0.45932443  0.66635557     0.95800
O1709       O  0.14595497  0.49985754  0.67293498    -0.77400
O1710       O  0.10834275  0.41509881  0.69725970    -0.82600
C1711       C  0.07779245  0.44274769  0.69214613     0.98400
C1712       C  0.10483335  0.41102565  0.72333691     1.04400
O1713       O  0.08285812  0.44689737  0.71789989    -0.78200
C1714       C  0.13519564  0.49035235  0.65115343     1.02700
Fe1715     Fe  0.99803784  0.16416181  0.87601051     1.65800
Fe1716     Fe  0.00506959  0.20992676  0.90669422     1.73200
Fe1717     Fe  0.98595864  0.19715055  0.84015272     1.54400
O1718       O  0.00409698  0.18799730  0.81457170    -0.82000
O1719       O  0.97840446  0.21224380  0.90567811    -0.80300
O1720       O  0.01896248  0.17466316  0.84314893    -0.84500
O1721       O  0.97227690  0.14620405  0.84949372    -0.79300
O1722       O  0.01156892  0.22758716  0.83838632    -0.81100
O1723       O  0.98759378  0.18352400  0.93397584    -0.83900
C1724       C  0.95754958  0.14878105  0.83944300     0.96900
C1725       C  0.01801480  0.18242858  0.81970834     1.04300
O1726       O  0.99635613  0.19057142  0.87432955    -1.12800
O1727       O  0.03317858  0.21025235  0.91211832    -0.75300
O1728       O  0.02397511  0.17644704  0.90287798    -0.78800
O1729       O  0.95907786  0.16711841  0.83868469    -0.79400
C1730       C  0.03685920  0.19486885  0.91302634     0.95800
O1731       O  0.97729851  0.15334329  0.90901177    -0.77400
O1732       O  0.02257854  0.23798232  0.88218748    -0.82600
C1733       C  0.96595092  0.21203351  0.88717737     0.98400
C1734       C  0.02381571  0.24164297  0.85589669     1.04400
O1735       O  0.96732936  0.20783965  0.86152836    -0.78200
C1736       C  0.97604082  0.16300005  0.93062674     1.02700
Fe1737     Fe  0.83877297  0.32927148  0.54195028     1.65800
Fe1738     Fe  0.87658303  0.32176073  0.57354739     1.73200
Fe1739     Fe  0.88331435  0.33922240  0.50581760     1.54400
O1740       O  0.85644609  0.32015225  0.98066567    -0.82000
O1741       O  0.90615073  0.34840136  0.57086672    -0.80300
O1742       O  0.82741483  0.30859297  0.50846577    -0.84500
O1743       O  0.84811321  0.35578023  0.51617025    -0.79300
O1744       O  0.88797053  0.31367106  0.50630129    -0.81100
O1745       O  0.86902071  0.34050596  0.60027384    -0.83900
C1746       C  0.86527090  0.36983849  0.00252515     0.96900
C1747       C  0.83638812  0.30834513  0.98553750     1.04300
O1748       O  0.86628579  0.33005361  0.54044336    -1.12800
O1749       O  0.84804690  0.29405201  0.58076854    -0.75300
O1750       O  0.82394266  0.30264504  0.56804666    -0.78800
O1751       O  0.88084330  0.36678012  0.99964178    -0.79400
C1752       C  0.82899390  0.29011412  0.58000851     0.95800
O1753       O  0.84886592  0.34989208  0.57549194    -0.77400
O1754       O  0.88565562  0.30255933  0.55026517    -0.82600
C1755       C  0.91800079  0.36129492  0.55213852     0.98400
C1756       C  0.88858956  0.30109521  0.52418291     1.04400
O1757       O  0.91235505  0.35943559  0.52658192    -0.78200
C1758       C  0.85977621  0.35157400  0.59711089     1.02700
Fe1759     Fe  0.83715042  0.50677361  0.79090608     1.65800
Fe1760     Fe  0.86621319  0.56116108  0.78963163     1.73200
Fe1761     Fe  0.89094490  0.53162091  0.79121980     1.54400
O1762       O  0.87799978  0.50555790  0.81895336    -0.82000
O1763       O  0.88552161  0.57045406  0.75489315    -0.80300
O1764       O  0.84436726  0.49699558  0.82745530    -0.84500
O1765       O  0.84743520  0.48928127  0.76735862    -0.79300
O1766       O  0.90235793  0.55182172  0.82512266    -0.81100
O1767       O  0.84007522  0.54997005  0.76248190    -0.83900
C1768       C  0.86419282  0.49329199  0.75388798     0.96900
C1769       C  0.86076240  0.49567460  0.83313478     1.04300
O1770       O  0.86486592  0.53326421  0.79060364    -1.12800
O1771       O  0.84645165  0.55391579  0.82441670    -0.75300
O1772       O  0.82210541  0.51994631  0.81417513    -0.78800
O1773       O  0.88179610  0.51084954  0.75723129    -0.79400
C1774       C  0.82792791  0.53739995  0.82759248     0.95800
O1775       O  0.82875692  0.51521897  0.75441104    -0.77400
O1776       O  0.89349256  0.57659824  0.81529838    -0.82600
C1777       C  0.90294848  0.57066324  0.75127557     0.98400
C1778       C  0.90523691  0.57070237  0.82780949     1.04400
O1779       O  0.90758918  0.55814882  0.76445967    -0.78200
C1780       C  0.82919822  0.53263927  0.74837896     1.02700
Fe1781     Fe  0.15088141  0.66085566  0.95953453     1.65800
Fe1782     Fe  0.12461395  0.68825744  0.95256970     1.73200
Fe1783     Fe  0.09678039  0.63333658  0.95908758     1.54400
O1784       O  0.10803103  0.61718082  0.93472328    -0.82000
O1785       O  0.10501321  0.68163450  0.98634048    -0.80300
O1786       O  0.14261219  0.64002247  0.92634479    -0.84500
O1787       O  0.13934895  0.63561964  0.98777608    -0.79300
O1788       O  0.08594829  0.63996514  0.92302430    -0.81100
O1789       O  0.15037635  0.70473527  0.97976925    -0.83900
C1790       C  0.12158714  0.62236214  0.49795520     0.96900
C1791       C  0.12527432  0.62254298  0.92153204     1.04300
O1792       O  0.12400598  0.66079051  0.95698447    -1.12800
O1793       O  0.14507003  0.69784193  0.91848869    -0.75300
O1794       O  0.16693071  0.68632402  0.93193986    -0.78800
O1795       O  0.10485988  0.62347090  0.99541245    -0.79400
C1796       C  0.16264043  0.69802295  0.91651310     0.95800
O1797       O  0.16063896  0.68160014  0.99288954    -0.77400
O1798       O  0.09804055  0.67532773  0.92580318    -0.82600
C1799       C  0.08756188  0.66490288  0.99292693     0.98400
C1800       C  0.08534063  0.65662992  0.91578254     1.04400
O1801       O  0.08175278  0.64622921  0.98305546    -0.78200
C1802       C  0.16086784  0.69928799  0.99578187     1.02700
Fe1803     Fe  0.99449809  0.81523974  0.62232096     1.65800
Fe1804     Fe  0.02192804  0.78875373  0.61935272     1.73200
Fe1805     Fe  0.96758721  0.76076322  0.61600871     1.54400
O1806       O  0.95221995  0.77033884  0.64415639    -0.82000
O1807       O  0.01439836  0.77077164  0.58344526    -0.80300
O1808       O  0.97523644  0.80423159  0.65717036    -0.84500
O1809       O  0.96799098  0.80489973  0.59665984    -0.79300
O1810       O  0.97527305  0.74784270  0.64908851    -0.81100
O1811       O  0.03687228  0.81633502  0.59445156    -0.83900
C1812       C  0.95617920  0.78856850  0.58146790     0.96900
C1813       C  0.95782334  0.78643755  0.66033133     1.04300
O1814       O  0.99468234  0.78818350  0.61914828    -1.12800
O1815       O  0.03247708  0.80718548  0.65550731    -0.75300
O1816       O  0.02123113  0.83035120  0.64818627    -0.78800
O1817       O  0.95679591  0.77120237  0.58283655    -0.79400
C1818       C  0.03331600  0.82498419  0.66064071     0.95800
O1819       O  0.01360473  0.82755101  0.58767490    -0.77400
O1820       O  0.01017577  0.76052702  0.64315468    -0.82600
C1821       C  0.99787417  0.75289367  0.57745100     0.98400
C1822       C  0.99210286  0.74714339  0.65376355     1.04400
O1823       O  0.97968588  0.74697621  0.58832814    -0.78200
C1824       C  0.03091486  0.82801404  0.58179164     1.02700
Fe1825     Fe  0.33032248  0.83362378  0.70892605     1.65800
Fe1826     Fe  0.32223639  0.86941016  0.67252513     1.73200
Fe1827     Fe  0.33858903  0.87958341  0.74069632     1.54400
O1828       O  0.31899624  0.85284695  0.76635699    -0.82000
O1829       O  0.34768612  0.89983303  0.67407360    -0.80300
O1830       O  0.30839696  0.82295335  0.74063990    -0.84500
O1831       O  0.35515272  0.84410533  0.73729499    -0.79300
O1832       O  0.31294264  0.88355059  0.73736743    -0.81100
O1833       O  0.34240849  0.86188264  0.64885062    -0.83900
C1834       C  0.36814283  0.86184240  0.74895143     0.96900
C1835       C  0.30702330  0.83246195  0.76235752     1.04300
O1836       O  0.33033175  0.86097326  0.70739889    -1.12800
O1837       O  0.29553704  0.83983722  0.66622819    -0.75300
O1838       O  0.30537937  0.81697298  0.68081799    -0.78800
O1839       O  0.36541692  0.87787227  0.74859105    -0.79400
C1840       C  0.29249589  0.82093810  0.66794092     0.95800
O1841       O  0.35259013  0.84418587  0.67768841    -0.77400
O1842       O  0.30198869  0.87841470  0.69303509    -0.82600
C1843       C  0.36018164  0.91279162  0.69229342     0.98400
C1844       C  0.30029242  0.88260428  0.71859336     1.04400
O1845       O  0.35848217  0.90811543  0.71824633    -0.78200
C1846       C  0.35481441  0.85466210  0.65532923     1.02700
Fe1847     Fe  0.16675253  0.99054357  0.87289774     1.65800
Fe1848     Fe  0.21204681  0.00091612  0.83936134     1.73200
Fe1849     Fe  0.20281581  0.98185688  0.90617647     1.54400
O1850       O  0.19453125  0.00063215  0.93202880    -0.82000
O1851       O  0.21548774  0.97454890  0.83921124    -0.80300
O1852       O  0.17710473  0.01233735  0.90520985    -0.84500
O1853       O  0.15121856  0.96518001  0.90088830    -0.79300
O1854       O  0.23263918  0.00813128  0.90588380    -0.81100
O1855       O  0.18514207  0.98278727  0.81311835    -0.83900
C1856       C  0.15532743  0.95159966  0.91170590     0.96900
C1857       C  0.18690835  0.01310979  0.92764147     1.04300
O1858       O  0.19406261  0.99114549  0.87287172    -1.12800
O1859       O  0.21047784  0.02851493  0.83573636    -0.75300
O1860       O  0.17628608  0.01586116  0.84484387    -0.78800
O1861       O  0.17385517  0.95415185  0.91092528    -0.79400
C1862       C  0.19397716  0.03017888  0.83460837     0.95800
O1863       O  0.15620975  0.96863381  0.84075674    -0.77400
O1864       O  0.24082582  0.01956614  0.86192566    -0.82600
C1865       C  0.21573491  0.96171207  0.85704772     0.98400
C1866       C  0.24556800  0.02084031  0.88784925     1.04400
O1867       O  0.21252185  0.96297696  0.88312888    -0.78200
C1868       C  0.16532124  0.96918912  0.81776481     1.02700
Fe1869     Fe  0.49226397  0.15497674  0.53697231     1.65800
Fe1870     Fe  0.44644916  0.12213120  0.57250179     1.73200
Fe1871     Fe  0.45277078  0.11003306  0.50530210     1.54400
O1872       O  0.45785832  0.13441632  0.97909492    -0.82000
O1873       O  0.43984630  0.09101998  0.57236346    -0.80300
O1874       O  0.48341975  0.16649601  0.50379039    -0.84500
O1875       O  0.50584018  0.14234433  0.51064644    -0.79300
O1876       O  0.42385179  0.10753206  0.50756081    -0.81100
O1877       O  0.47306028  0.12870411  0.59767047    -0.83900
C1878       C  0.49702340  0.12208661  0.99976422     0.96900
C1879       C  0.46927027  0.15500203  0.98141847     1.04300
O1880       O  0.46369852  0.12896803  0.53822613    -1.12800
O1881       O  0.45134013  0.15279466  0.57681774    -0.75300
O1882       O  0.48494674  0.17326453  0.56320400    -0.78800
O1883       O  0.47749899  0.10802032  0.99767670    -0.79400
C1884       C  0.46833586  0.17095938  0.57515476     0.95800
O1885       O  0.50185973  0.14407058  0.56993766    -0.77400
O1886       O  0.41785047  0.11407814  0.55110644    -0.82600
C1887       C  0.43931732  0.07755891  0.55480302     0.98400
C1888       C  0.41220072  0.10935617  0.52560355     1.04400
O1889       O  0.44277048  0.08172608  0.52875867    -0.78200
C1890       C  0.49273141  0.13498467  0.59268907     1.02700
Fe1891     Fe  0.81697741  0.99269852  0.62647332     1.65800
Fe1892     Fe  0.79169174  0.02134806  0.62273596     1.73200
Fe1893     Fe  0.76320587  0.96643281  0.62926702     1.54400
O1894       O  0.77354753  0.94944245  0.60467492    -0.82000
O1895       O  0.77176569  0.01491203  0.65633618    -0.80300
O1896       O  0.80729841  0.97242944  0.59252037    -0.84500
O1897       O  0.80528413  0.96657093  0.65329506    -0.79300
O1898       O  0.75220576  0.97321904  0.59354857    -0.81100
O1899       O  0.81734161  0.03646311  0.65047457    -0.83900
C1900       C  0.78877963  0.95563035  0.66828528     0.96900
C1901       C  0.78993444  0.95459734  0.58958524     1.04300
O1902       O  0.79053917  0.99356590  0.62612383    -1.12800
O1903       O  0.81219324  0.03148215  0.58845851    -0.75300
O1904       O  0.83324436  0.01852005  0.59953673    -0.78800
O1905       O  0.77211668  0.95705709  0.66539864    -0.79400
C1906       C  0.82923206  0.03083164  0.58503829     0.95800
O1907       O  0.82779495  0.01282275  0.66054558    -0.77400
O1908       O  0.76532616  0.00891596  0.59581041    -0.82600
C1909       C  0.75385859  0.99847552  0.66223044     0.98400
C1910       C  0.75229034  0.99021247  0.58602341     1.04400
O1911       O  0.74840861  0.97967709  0.65315246    -0.78200
C1912       C  0.82789264  0.03029999  0.66529629     1.02700
Fe1913     Fe  0.50688483  0.83872472  0.95258802     1.65800
Fe1914     Fe  0.56048913  0.86379446  0.95219502     1.73200
Fe1915     Fe  0.53530162  0.89232226  0.96281073     1.54400
O1916       O  0.50987822  0.88376073  0.93507106    -0.82000
O1917       O  0.57324147  0.88115543  0.98798440    -0.80300
O1918       O  0.50002293  0.85092351  0.91804593    -0.84500
O1919       O  0.49051436  0.84947771  0.97727870    -0.79300
O1920       O  0.55564701  0.90690286  0.93004038    -0.81100
O1921       O  0.54737544  0.83575618  0.97703809    -0.83900
C1922       C  0.49548805  0.86483959  0.49626004     0.96900
C1923       C  0.49988868  0.86859481  0.91721134     1.04300
O1924       O  0.53449298  0.86517332  0.95589699    -1.12800
O1925       O  0.55068532  0.84608932  0.91544425    -0.75300
O1926       O  0.51751580  0.82227792  0.92749688    -0.78800
O1927       O  0.51462516  0.88028657  0.99660032    -0.79400
C1928       C  0.53405747  0.82766050  0.91286890     0.95800
O1929       O  0.51369096  0.82676495  0.98717619    -0.77400
O1930       O  0.57652980  0.89236634  0.92845688    -0.82600
C1931       C  0.57445462  0.89823716  0.99748897     0.98400
C1932       C  0.57222083  0.90693334  0.92147542     1.04400
O1933       O  0.56157899  0.90449711  0.99001376    -0.78200
C1934       C  0.53026747  0.82543010  0.99162399     1.02700
Fe1935     Fe  0.66093110  0.15316692  0.78993943     1.65800
Fe1936     Fe  0.63468624  0.09843922  0.78912382     1.73200
Fe1937     Fe  0.68925853  0.12751875  0.79149407     1.54400
O1938       O  0.70369397  0.15361110  0.76404003    -0.82000
O1939       O  0.64316242  0.08776888  0.82376077    -0.80300
O1940       O  0.68033228  0.16439264  0.75544312    -0.84500
O1941       O  0.68694530  0.16948423  0.81623695    -0.79300
O1942       O  0.68155209  0.10757202  0.75734297    -0.81100
O1943       O  0.61903290  0.10887828  0.81580723    -0.83900
C1944       C  0.69960005  0.16550829  0.82978936     0.96900
C1945       C  0.69762789  0.16469203  0.75015717     1.04300
O1946       O  0.66163865  0.12630747  0.79013365    -1.12800
O1947       O  0.62324493  0.10665727  0.75432098    -0.75300
O1948       O  0.63491132  0.14129208  0.76344695    -0.78800
O1949       O  0.70012954  0.14823031  0.82588814    -0.79400
C1950       C  0.62313325  0.12405794  0.74982455     0.95800
O1951       O  0.64156231  0.14376116  0.82445285    -0.77400
O1952       O  0.64691368  0.08359154  0.76336645    -0.82600
C1953       C  0.66016617  0.08757341  0.82915567     0.98400
C1954       C  0.66500412  0.08948396  0.75220317     1.04400
O1955       O  0.67811945  0.10065878  0.81797441    -0.78200
C1956       C  0.62460961  0.12605663  0.82975169     1.02700
Fe1957     Fe  0.48579081  0.32784622  0.79272754     1.65800
Fe1958     Fe  0.45926982  0.35522150  0.79040484     1.73200
Fe1959     Fe  0.43226101  0.30059117  0.78826334     1.54400
O1960       O  0.44539584  0.28627540  0.76399668    -0.82000
O1961       O  0.43796930  0.34545818  0.82316273    -0.80300
O1962       O  0.47939522  0.31092890  0.75551670    -0.84500
O1963       O  0.47242171  0.29900278  0.81507165    -0.79300
O1964       O  0.42435858  0.31005228  0.75205891    -0.81100
O1965       O  0.48394471  0.36913782  0.81975270    -0.83900
C1966       C  0.45488126  0.28679063  0.82768441     0.96900
C1967       C  0.46255391  0.29306767  0.74999804     1.04300
O1968       O  0.45908086  0.32795626  0.79047313    -1.12800
O1969       O  0.48115670  0.36779633  0.75771345    -0.75300
O1970       O  0.50340456  0.35672871  0.77093517    -0.78800
O1971       O  0.43856600  0.28877965  0.82427759    -0.79400
C1972       C  0.49945995  0.36941748  0.75704258     0.95800
O1973       O  0.49318058  0.34459458  0.82995834    -0.77400
O1974       O  0.43353843  0.34402753  0.76215871    -0.82600
C1975       C  0.41938964  0.32890322  0.82364692     0.98400
C1976       C  0.42225655  0.32640831  0.74871412     1.04400
O1977       O  0.41487891  0.31149885  0.81092103    -0.78200
C1978       C  0.49337185  0.36207517  0.83527578     1.02700
Fe1979     Fe  0.17591853  0.17209814  0.62639450     1.65800
Fe1980     Fe  0.22970269  0.20014341  0.62030880     1.73200
Fe1981     Fe  0.20195212  0.22682814  0.62558086     1.54400
O1982       O  0.17534793  0.21450540  0.59905404    -0.82000
O1983       O  0.24246554  0.22059012  0.65382035    -0.80300
O1984       O  0.16417168  0.17954055  0.59227466    -0.84500
O1985       O  0.16041094  0.18304470  0.65258420    -0.79300
O1986       O  0.22094739  0.23908928  0.59073254    -0.81100
O1987       O  0.22004491  0.17425415  0.64776119    -0.83900
C1988       C  0.16512820  0.20042439  0.66540489     0.96900
C1989       C  0.16389514  0.19660391  0.58625383     1.04300
O1990       O  0.20262361  0.19984545  0.62405913    -1.12800
O1991       O  0.21941243  0.17923830  0.58624705    -0.75300
O1992       O  0.18624385  0.15613798  0.59999347    -0.78800
O1993       O  0.18262640  0.21785195  0.66095354    -0.79400
C1994       C  0.20225945  0.16104018  0.58436464     0.95800
O1995       O  0.18651256  0.16318700  0.66074559    -0.77400
O1996       O  0.24361443  0.22682498  0.59337947    -0.82600
C1997       C  0.24274818  0.23787144  0.66050385     0.98400
C1998       C  0.23825422  0.23996377  0.58376488     1.04400
O1999       O  0.22915612  0.24261140  0.65112472    -0.78200
C2000       C  0.20392046  0.16317657  0.66351632     1.02700
Fe2001     Fe  0.32638279  0.48427040  0.95173096     1.65800
Fe2002     Fe  0.35505572  0.45892380  0.94984741     1.73200
Fe2003     Fe  0.30089615  0.43017298  0.95313874     1.54400
O2004       O  0.28564738  0.44168223  0.97913633    -0.82000
O2005       O  0.34546246  0.43808159  0.91625785    -0.80300
O2006       O  0.30972803  0.47590287  0.98845587    -0.84500
O2007       O  0.29812963  0.47095580  0.92869008    -0.79300
O2008       O  0.31104603  0.42181708  0.98830786    -0.81100
O2009       O  0.36771831  0.48446835  0.92121461    -0.83900
C2010       C  0.28698163  0.45365033  0.91476262     0.96900
C2011       C  0.29226800  0.45876564  0.99373082     1.04300
O2012       O  0.32757700  0.45780112  0.95153641    -1.12800
O2013       O  0.36771519  0.48043035  0.98331416    -0.75300
O2014       O  0.35414224  0.50156523  0.97489545    -0.78800
O2015       O  0.28910125  0.43721477  0.91774266    -0.79400
C2016       C  0.36727746  0.49893495  0.48784696     0.95800
O2017       O  0.34323624  0.49425182  0.91519658    -0.77400
O2018       O  0.34492252  0.43244838  0.97726299    -0.82600
C2019       C  0.32950275  0.41904575  0.91574591     0.98400
C2020       C  0.32776231  0.42051173  0.99102562     1.04400
O2021       O  0.31234299  0.41385748  0.92901013    -0.78200
C2022       C  0.36044229  0.49491039  0.90820063     1.02700
Fe2023     Fe  0.50264147  0.66209905  0.70275350     1.65800
Fe2024     Fe  0.53440860  0.64832383  0.73815586     1.73200
Fe2025     Fe  0.54860177  0.67015900  0.67285315     1.54400
O2026       O  0.52278833  0.65291580  0.64442998    -0.82000
O2027       O  0.56481442  0.67351120  0.74110360    -0.80300
O2028       O  0.49251964  0.64241583  0.66846184    -0.84500
O2029       O  0.51534475  0.68924763  0.67747046    -0.79300
O2030       O  0.55103389  0.64323981  0.67287202    -0.81100
O2031       O  0.52604760  0.66680692  0.76453113    -0.83900
C2032       C  0.53356077  0.70231639  0.66738104     0.96900
C2033       C  0.50232272  0.64161343  0.64683708     1.04300
O2034       O  0.52869932  0.66022176  0.70455717    -1.12800
O2035       O  0.50448110  0.62163824  0.73887716    -0.75300
O2036       O  0.48413813  0.63525665  0.72762318    -0.78800
O2037       O  0.54875904  0.69855753  0.66812752    -0.79400
C2038       C  0.48643839  0.62018922  0.73750341     0.95800
O2039       O  0.51231019  0.68186690  0.73689101    -0.77400
O2040       O  0.54360364  0.62895984  0.71554892    -0.82600
C2041       C  0.57886156  0.68743811  0.72505131     0.98400
C2042       C  0.54856301  0.62881205  0.68997277     1.04400
O2043       O  0.57591771  0.68773813  0.69870996    -0.78200
C2044       C  0.52003096  0.68058678  0.76014793     1.02700
Fe2045     Fe  0.66270570  0.49892917  0.54262932     1.65800
Fe2046     Fe  0.64821133  0.53006035  0.50609314     1.73200
Fe2047     Fe  0.66974192  0.54553722  0.57135531     1.54400
O2048       O  0.65198201  0.52001459  0.59986160    -0.82000
O2049       O  0.67150481  0.56168165  0.50393616    -0.80300
O2050       O  0.64295310  0.48926745  0.57673789    -0.84500
O2051       O  0.68977480  0.51254455  0.56760420    -0.79300
O2052       O  0.64341897  0.54851738  0.56966963    -0.81100
O2053       O  0.66909751  0.52497858  0.98235753    -0.83900
C2054       C  0.70209561  0.53092011  0.57825303     0.96900
C2055       C  0.64075977  0.49940473  0.59714631     1.04300
O2056       O  0.66030742  0.52498189  0.53997569    -1.12800
O2057       O  0.62377889  0.49899883  0.00527495    -0.75300
O2058       O  0.63610483  0.47906161  0.51848333    -0.78800
O2059       O  0.69759213  0.54572309  0.57811968    -0.79400
C2060       C  0.62303786  0.48115290  0.00779465     0.95800
O2061       O  0.68223691  0.50845364  0.50819427    -0.77400
O2062       O  0.62743509  0.53726463  0.52834689    -0.82600
C2063       C  0.68581980  0.57588922  0.51948768     0.98400
C2064       C  0.62816218  0.54405025  0.55321555     1.04400
O2065       O  0.68758269  0.57245465  0.54526894    -0.78200
C2066       C  0.68302293  0.51923082  0.98647177     1.02700
Fe2067     Fe  0.82651068  0.82091073  0.87522389     1.65800
Fe2068     Fe  0.77954543  0.78518973  0.90608348     1.73200
Fe2069     Fe  0.78917617  0.77816310  0.83794163     1.54400
O2070       O  0.79960391  0.80678708  0.81480702    -0.82000
O2071       O  0.77301136  0.75429084  0.90230128    -0.80300
O2072       O  0.81868297  0.83480402  0.84367858    -0.84500
O2073       O  0.84128131  0.81088943  0.84695645    -0.79300
O2074       O  0.76022169  0.77594457  0.83877238    -0.81100
O2075       O  0.80529745  0.79002605  0.93238883    -0.83900
C2076       C  0.83632309  0.79365551  0.83382074     0.96900
C2077       C  0.80903561  0.82699539  0.82066378     1.04300
O2078       O  0.79822316  0.79466832  0.87303149    -1.12800
O2079       O  0.78384318  0.81518359  0.91428279    -0.75300
O2080       O  0.81794172  0.83690036  0.90397653    -0.78800
O2081       O  0.81724667  0.77825633  0.83228118    -0.79400
C2082       C  0.80071448  0.83345801  0.91535937     0.95800
O2083       O  0.83498371  0.80721233  0.90630884    -0.77400
O2084       O  0.75190090  0.77863815  0.88291266    -0.82600
C2085       C  0.77257378  0.74195801  0.88313007     0.98400
C2086       C  0.74756893  0.77611549  0.85676255     1.04400
O2087       O  0.77727534  0.74800682  0.85775897    -0.78200
C2088       C  0.82505214  0.79630833  0.92776353     1.02700
C2089       C  0.70077066  0.59687294  0.50585750    -0.03500
C2090       C  0.71983409  0.61256806  0.51856307    -0.06100
C2091       C  0.73095039  0.63265536  0.00524166    -0.21200
C2092       C  0.72385441  0.63669883  0.97975635     0.24500
C2093       C  0.70319339  0.62175220  0.97045373    -0.18700
C2094       C  0.69610329  0.60086875  0.47867520    -0.08700
C2095       C  0.73773013  0.65701597  0.96394210    -0.19000
C2096       C  0.73580901  0.65900114  0.93605919    -0.16600
C2097       C  0.74766963  0.67973008  0.92027452     0.26600
C2098       C  0.73957607  0.68171358  0.89435186    -0.20600
C2099       C  0.74880350  0.70166241  0.88041996    -0.10200
C2100       C  0.76634464  0.71990158  0.89221274    -0.10700
C2101       C  0.77533659  0.71756071  0.91701735    -0.03700
C2102       C  0.76625060  0.69772742  0.93080755    -0.18800
H2103       H  0.72399098  0.60997170  0.53935308     0.10300
H2104       H  0.74666433  0.64413448  0.01319344     0.10400
H2105       H  0.69659644  0.62463720  0.95180062     0.10000
H2106       H  0.68150505  0.58931141  0.46817298     0.11100
H2107       H  0.74946623  0.67068388  0.97599814     0.11200
H2108       H  0.72422200  0.64503472  0.92424491     0.13100
H2109       H  0.72540186  0.66805566  0.88555887     0.09700
H2110       H  0.74137457  0.70315312  0.86159693     0.11700
H2111       H  0.78890241  0.73147163  0.92650293     0.08400
H2112       H  0.77359585  0.69685230  0.95000414     0.11100
C2113       C  0.59873766  0.70389485  0.73929074    -0.03500
C2114       C  0.59666899  0.71095499  0.76598589    -0.06100
C2115       C  0.61440864  0.72270724  0.78316678    -0.21200
C2116       C  0.63488234  0.72800511  0.77422927     0.24500
C2117       C  0.63731312  0.72211257  0.74680583    -0.18700
C2118       C  0.61932936  0.71015058  0.72943549    -0.08700
C2119       C  0.65259312  0.73777727  0.79520208    -0.19000
C2120       C  0.67346758  0.74978046  0.78870778    -0.23800
C2121       C  0.69097534  0.75871829  0.81002121     0.26600
C2122       C  0.71055272  0.77697303  0.80298348    -0.20600
C2123       C  0.72837640  0.78408567  0.82031157    -0.10200
C2124       C  0.72725801  0.77300366  0.84508363    -0.10700
C2125       C  0.70738071  0.75555687  0.85323278    -0.03700
C2126       C  0.68935071  0.74846079  0.83586325    -0.18800
H2127       H  0.58102076  0.70650214  0.77415048     0.10300
H2128       H  0.61198861  0.72706600  0.80400933     0.10400
H2129       H  0.65282417  0.72564302  0.73930291     0.10000
H2130       H  0.62137414  0.70469740  0.70914510     0.11100
H2131       H  0.64804243  0.73543763  0.81713375     0.11200
H2132       H  0.67801790  0.75378064  0.76692562     0.13100
H2133       H  0.71233632  0.78523556  0.78334476     0.09700
H2134       H  0.74356031  0.79742237  0.81332255     0.11700
H2135       H  0.70618563  0.74634047  0.87174414     0.08400
H2136       H  0.67463622  0.73409653  0.84182061     0.11100
C2137       C  0.55071269  0.61106052  0.67774081    -0.03500
C2138       C  0.53843916  0.60076380  0.65386719    -0.06100
C2139       C  0.54401397  0.58901467  0.63595146    -0.21200
C2140       C  0.56191477  0.58705494  0.64149265     0.24500
C2141       C  0.57347808  0.59615249  0.66642847    -0.18700
C2142       C  0.56794269  0.60816103  0.68438342    -0.08700
C2143       C  0.56922335  0.57753843  0.61935445    -0.19000
C2144       C  0.58023421  0.56749251  0.62467383    -0.23800
C2145       C  0.58836838  0.55884124  0.60246136     0.26600
C2146       C  0.59122127  0.54148338  0.60920730    -0.20600
C2147       C  0.60201125  0.53503960  0.59099427    -0.10200
C2148       C  0.61055680  0.54598498  0.56568441    -0.10700
C2149       C  0.60660189  0.56249157  0.55787419    -0.03700
C2150       C  0.59545160  0.56881847  0.57609161    -0.18800
H2151       H  0.52531876  0.60310589  0.64801151     0.10300
H2152       H  0.53484090  0.58223714  0.61698867     0.10400
H2153       H  0.58762717  0.59530547  0.67110996     0.10000
H2154       H  0.57803925  0.61648864  0.70215983     0.11100
H2155       H  0.56481255  0.57835825  0.59788745     0.11200
H2156       H  0.58295468  0.56490483  0.64628354     0.13100
H2157       H  0.58597928  0.53352401  0.62928055     0.09700
H2158       H  0.60520868  0.52252746  0.59772438     0.11700
H2159       H  0.61357800  0.57159783  0.53890426     0.08400
H2160       H  0.59381873  0.58250432  0.57040668     0.11100
C2161       C  0.46775419  0.60063646  0.74897182    -0.03500
C2162       C  0.46900822  0.58206964  0.75447117    -0.06100
C2163       C  0.45260967  0.56465606  0.76887243    -0.21200
C2164       C  0.43482359  0.56558730  0.77844505     0.24500
C2165       C  0.43282787  0.58350201  0.77122344    -0.18700
C2166       C  0.44916837  0.60087183  0.75660064    -0.08700
C2167       C  0.41947163  0.54826276  0.79728714    -0.19000
C2168       C  0.40888246  0.55202874  0.81756810    -0.23800
C2169       C  0.39587824  0.53610957  0.83940887     0.26600
C2170       C  0.38044418  0.53883721  0.85348369    -0.20600
C2171       C  0.36876785  0.52522456  0.87548563    -0.10200
C2172       C  0.37252127  0.50875286  0.88426827    -0.10700
C2173       C  0.38799447  0.50596948  0.87024770    -0.03700
C2174       C  0.39955192  0.51948649  0.84795773    -0.18800
H2175       H  0.48299178  0.58127007  0.74842361     0.10300
H2176       H  0.45434007  0.55088520  0.77377957     0.10400
H2177       H  0.41890364  0.58437103  0.77728183     0.10000
H2178       H  0.44764521  0.61485227  0.75234823     0.11100
H2179       H  0.41833477  0.53261997  0.79587095     0.11200
H2180       H  0.41023797  0.56777232  0.81901391     0.13100
H2181       H  0.37750962  0.55166920  0.84755183     0.09700
H2182       H  0.35706940  0.52791239  0.88601236     0.11700
H2183       H  0.39122957  0.49342780  0.87658889     0.08400
H2184       H  0.41177039  0.51726576  0.83818911     0.11100
C2185       C  0.48884332  0.62625931  0.62430891    -0.03500
C2186       C  0.49759012  0.61959852  0.60294023    -0.06100
C2187       C  0.48419098  0.60325841  0.58398549    -0.21200
C2188       C  0.46176025  0.59331929  0.58573667     0.24500
C2189       C  0.45311586  0.60032323  0.60686026    -0.18700
C2190       C  0.46641552  0.61654187  0.62567637    -0.08700
C2191       C  0.44785007  0.57504665  0.56630320    -0.19000
C2192       C  0.42720723  0.56881863  0.56085167    -0.23800
C2193       C  0.41263099  0.55058578  0.54194478     0.26600
C2194       C  0.39462040  0.55053529  0.53115880    -0.20600
C2195       C  0.37856142  0.53065881  0.01700221    -0.10200
C2196       C  0.38278217  0.51620177  0.50716420    -0.10700
C2197       C  0.40063669  0.51595714  0.51830883    -0.03700
C2198       C  0.41544881  0.53299217  0.53545564    -0.18800
H2199       H  0.51473847  0.62651075  0.60139480     0.10300
H2200       H  0.49137028  0.59816819  0.56811133     0.10400
H2201       H  0.43602448  0.59284931  0.60974414     0.10000
H2202       H  0.45897331  0.62106952  0.64187001     0.11100
H2203       H  0.45507559  0.56696417  0.55565518     0.11200
H2204       H  0.42064425  0.57816717  0.56964963     0.13100
H2205       H  0.39183850  0.56367667  0.53594192     0.09700
H2206       H  0.36414914  0.53060620  0.01091518     0.11700
H2207       H  0.40326071  0.50271354  0.51358704     0.08400
H2208       H  0.42883003  0.53213932  0.54389919     0.11100
C2209       C  0.32603167  0.40318790  0.51031616    -0.03500
C2210       C  0.31283121  0.39691362  0.03273748    -0.06100
C2211       C  0.30506985  0.37631824  0.54556574    -0.21200
C2212       C  0.30913085  0.36112180  0.53271040     0.24500
C2213       C  0.32333421  0.36782757  0.50983077    -0.18700
C2214       C  0.33183457  0.38878015  0.49887317    -0.08700
C2215       C  0.29597851  0.33813787  0.54181395    -0.19000
C2216       C  0.29891742  0.32166770  0.53431381    -0.23800
C2217       C  0.28318948  0.29910009  0.54289832     0.26600
C2218       C  0.29007404  0.28537783  0.55342812    -0.20600
C2219       C  0.27528500  0.26520426  0.56493081    -0.10200
C2220       C  0.25332089  0.25831515  0.56570042    -0.10700
C2221       C  0.24641881  0.27135806  0.55288017    -0.03700
C2222       C  0.26114189  0.29146628  0.54167844    -0.18800
H2223       H  0.30760230  0.40756111  0.04099382     0.10300
H2224       H  0.29401370  0.37216160  0.06225828     0.10400
H2225       H  0.32676347  0.35661395  0.49915340     0.10000
H2226       H  0.34130323  0.39298141  0.47992667     0.11100
H2227       H  0.28246315  0.33440348  0.55531586     0.11200
H2228       H  0.31309521  0.32467983  0.52288719     0.13100
H2229       H  0.30697174  0.29078501  0.55423477     0.09700
H2230       H  0.28118487  0.25563235  0.57470291     0.11700
H2231       H  0.22964915  0.26652370  0.55274707     0.08400
H2232       H  0.25530190  0.30138547  0.53280211     0.11100
C2233       C  0.60420247  0.46162718  0.99633879    -0.03500
C2234       C  0.60537751  0.44332062  0.98883270    -0.06100
C2235       C  0.58862961  0.42634960  0.97403904    -0.21200
C2236       C  0.57043157  0.42735326  0.96651439     0.24500
C2237       C  0.56850495  0.44482051  0.97623599    -0.18700
C2238       C  0.58528947  0.46183935  0.99074978    -0.08700
C2239       C  0.55454144  0.41066405  0.94719608    -0.19000
C2240       C  0.54222554  0.41459330  0.92986641    -0.23800
C2241       C  0.52880066  0.39999010  0.90685862     0.26600
C2242       C  0.52017513  0.40811316  0.88737103    -0.20600
C2243       C  0.50852169  0.39575854  0.86437207    -0.10200
C2244       C  0.50518299  0.37488201  0.86021071    -0.10700
C2245       C  0.51332814  0.36646839  0.88003278    -0.03700
C2246       C  0.52490825  0.37880292  0.90318249    -0.18800
H2247       H  0.61966574  0.44260245  0.99310550     0.10300
H2248       H  0.59036579  0.41290027  0.96726450     0.10400
H2249       H  0.55429723  0.44570532  0.97220946     0.10000
H2250       H  0.58367545  0.47547196  0.99697137     0.11100
H2251       H  0.55482613  0.39576492  0.94530061     0.11200
H2252       H  0.54327211  0.43021005  0.93088957     0.13100
H2253       H  0.52277564  0.42430538  0.88965327     0.09700
H2254       H  0.50241431  0.40273573  0.84961090     0.11700
H2255       H  0.51078329  0.35031342  0.87765418     0.08400
H2256       H  0.53072471  0.37157061  0.91787139     0.11100
C2257       C  0.62315303  0.48624217  0.61706186    -0.03500
C2258       C  0.60439626  0.46846878  0.60644858    -0.06100
C2259       C  0.58714131  0.45564471  0.62388742    -0.21200
C2260       C  0.58824315  0.45977879  0.65264160     0.24500
C2261       C  0.60693992  0.47763492  0.66354774    -0.18700
C2262       C  0.62417815  0.49097635  0.64577296    -0.08700
C2263       C  0.56930766  0.44510944  0.67004186    -0.19000
C2264       C  0.57068789  0.43911533  0.69626192    -0.23800
C2265       C  0.55195274  0.42151633  0.71150737     0.26600
C2266       C  0.55552870  0.40908593  0.73095135    -0.20600
C2267       C  0.53845610  0.39199981  0.74510471    -0.10200
C2268       C  0.51725197  0.38704757  0.74062671    -0.10700
C2269       C  0.51364603  0.39977104  0.72155020    -0.03700
C2270       C  0.53078021  0.41675355  0.70705751    -0.18800
H2271       H  0.60290418  0.46461644  0.58433734     0.10300
H2272       H  0.57293758  0.44217135  0.61488280     0.10400
H2273       H  0.60809901  0.48147148  0.68562014     0.10000
H2274       H  0.63833176  0.50469090  0.65445191     0.11100
H2275       H  0.55392311  0.43699346  0.65958287     0.11200
H2276       H  0.58637177  0.44566032  0.70571430     0.13100
H2277       H  0.57161238  0.41241817  0.73495195     0.09700
H2278       H  0.54196406  0.38281733  0.75991923     0.11700
H2279       H  0.49759934  0.39662614  0.71784735     0.08400
H2280       H  0.52741551  0.42630894  0.69273196     0.11100
C2281       C  0.40431888  0.32346558  0.73084692    -0.03500
C2282       C  0.39695808  0.30798064  0.70937916    -0.06100
C2283       C  0.37658834  0.29998152  0.69806934    -0.21200
C2284       C  0.36292729  0.30705493  0.70805873     0.24500
C2285       C  0.37087986  0.32380670  0.72805622    -0.18700
C2286       C  0.39147818  0.33201548  0.73921691    -0.08700
C2287       C  0.34006398  0.29456739  0.69934159    -0.19000
C2288       C  0.32470486  0.29921033  0.70585126    -0.23800
C2289       C  0.30198531  0.28369087  0.69868756     0.26600
C2290       C  0.28890934  0.29086592  0.68701178    -0.20600
C2291       C  0.26855515  0.27589867  0.67655418    -0.10200
C2292       C  0.26095628  0.25355842  0.67800533    -0.10700
C2293       C  0.27331019  0.24655691  0.69222699    -0.03700
C2294       C  0.29354737  0.26141022  0.70239306    -0.18800
H2295       H  0.40642369  0.30099661  0.70262356     0.10300
H2296       H  0.37100454  0.28719221  0.68259430     0.10400
H2297       H  0.36091589  0.32967816  0.73645016     0.10000
H2298       H  0.39657951  0.34366095  0.75613250     0.11100
H2299       H  0.33532932  0.27988425  0.68742540     0.11200
H2300       H  0.32865070  0.31441846  0.71569638     0.13100
H2301       H  0.29495456  0.30799536  0.68439503     0.09700
H2302       H  0.25945818  0.28182030  0.66567633     0.11700
H2303       H  0.26784540  0.22949165  0.69411447     0.08400
H2304       H  0.30295386  0.25542256  0.71228649     0.11100
C2305       C  0.40204748  0.33103472  0.83662305    -0.03500
C2306       C  0.38258873  0.32311751  0.82225349    -0.06100
C2307       C  0.36827207  0.32996819  0.82965204    -0.21200
C2308       C  0.37278605  0.34422304  0.85214376     0.24500
C2309       C  0.39150354  0.35086392  0.86782659    -0.18700
C2310       C  0.40614992  0.34456737  0.85987518    -0.08700
C2311       C  0.35951939  0.35434201  0.85654430    -0.19000
C2312       C  0.35533341  0.35912908  0.88207974    -0.23800
C2313       C  0.34537436  0.37256763  0.88642615     0.26600
C2314       C  0.33061266  0.36746502  0.90817597    -0.20600
C2315       C  0.32369840  0.38179565  0.91568126    -0.10200
C2316       C  0.33208606  0.40191028  0.90228592    -0.10700
C2317       C  0.34623927  0.40666081  0.87974975    -0.03700
C2318       C  0.35258568  0.39195935  0.87160511    -0.18800
H2319       H  0.37925250  0.31305728  0.80385291     0.10300
H2320       H  0.35406259  0.32481526  0.81712179     0.10400
H2321       H  0.39558807  0.36218342  0.88495841     0.10000
H2322       H  0.42116782  0.35113765  0.87099683     0.11100
H2323       H  0.35346112  0.35843101  0.83821279     0.11200
H2324       H  0.35968093  0.35335392  0.90048292     0.13100
H2325       H  0.32504120  0.35273142  0.92005342     0.09700
H2326       H  0.31313311  0.37789138  0.93350628     0.11700
H2327       H  0.35318085  0.42216760  0.86935976     0.08400
H2328       H  0.36429510  0.39644123  0.85505873     0.11100
C2329       C  0.65796596  0.06998384  0.84735442    -0.03500
C2330       C  0.64446102  0.06398499  0.87070162    -0.06100
C2331       C  0.63691526  0.04383244  0.88319136    -0.21200
C2332       C  0.64232910  0.02899556  0.87233657     0.24500
C2333       C  0.65711096  0.03561389  0.85011835    -0.18700
C2334       C  0.66496222  0.05603507  0.83786798    -0.08700
C2335       C  0.63001875  0.00629756  0.88269082    -0.19000
C2336       C  0.63293465  0.98984451  0.87497694    -0.23800
C2337       C  0.61726207  0.96725194  0.88339319     0.26600
C2338       C  0.62406975  0.95298097  0.89201781    -0.20600
C2339       C  0.60927620  0.93246783  0.90269503    -0.10200
C2340       C  0.58742701  0.92586012  0.90442783    -0.10700
C2341       C  0.58060004  0.93956488  0.89350358    -0.03700
C2342       C  0.59528424  0.95994761  0.88320902    -0.18800
H2343       H  0.63866719  0.07436442  0.87819147     0.10300
H2344       H  0.62566502  0.03929525  0.90033003     0.10400
H2345       H  0.66165154  0.02472932  0.84096318     0.10000
H2346       H  0.67498540  0.06012308  0.81944739     0.11100
H2347       H  0.61683257  0.00262453  0.89679473     0.11200
H2348       H  0.64673642  0.99274063  0.86275910     0.13100
H2349       H  0.64091290  0.95812510  0.89185161     0.09700
H2350       H  0.61507166  0.92234217  0.91099170     0.11700
H2351       H  0.56388937  0.93494762  0.89407374     0.08400
H2352       H  0.58943702  0.97023326  0.87565112     0.11100
C2353       C  0.53695381  0.72204206  0.65291956    -0.03500
C2354       C  0.55654350  0.73583435  0.63961601    -0.06100
C2355       C  0.55882271  0.75264175  0.62255265    -0.21200
C2356       C  0.54158020  0.75595244  0.61825333     0.24500
C2357       C  0.52244578  0.74312911  0.63309478    -0.18700
C2358       C  0.52014471  0.72629044  0.65014815    -0.08700
C2359       C  0.54393477  0.77231352  0.59738569    -0.19000
C2360       C  0.52720381  0.77088654  0.58333464    -0.23800
C2361       C  0.52920470  0.78586811  0.56067326     0.26600
C2362       C  0.51142771  0.78792201  0.55462687    -0.20600
C2363       C  0.51206631  0.80101538  0.53272672    -0.10200
C2364       C  0.53048945  0.81225778  0.51607957    -0.10700
C2365       C  0.54832261  0.81013738  0.52199032    -0.03700
C2366       C  0.54769290  0.79703432  0.54405551    -0.18800
H2367       H  0.56990617  0.73316042  0.64149647     0.10300
H2368       H  0.57382908  0.76250155  0.61172635     0.10400
H2369       H  0.50909689  0.74580245  0.63136432     0.10000
H2370       H  0.50496554  0.71619541  0.66046153     0.11100
H2371       H  0.56002052  0.78508952  0.59235490     0.11200
H2372       H  0.51114244  0.75802552  0.58825346     0.13100
H2373       H  0.49695225  0.77935569  0.56694418     0.09700
H2374       H  0.49801926  0.80225841  0.52884009     0.11700
H2375       H  0.56270119  0.81846781  0.50946807     0.08400
H2376       H  0.56148797  0.79530538  0.54750925     0.11100
C2377       C  0.53404411  0.81150846  0.89336460    -0.03500
C2378       C  0.54646235  0.81787999  0.86890682    -0.06100
C2379       C  0.54639713  0.80237306  0.85090649    -0.21200
C2380       C  0.53446644  0.78022175  0.85738987     0.24500
C2381       C  0.52223519  0.77388003  0.88206271    -0.18700
C2382       C  0.52191586  0.78933535  0.89971154    -0.08700
C2383       C  0.53383852  0.76416266  0.83695770    -0.19000
C2384       C  0.52981055  0.74416603  0.84387348    -0.23800
C2385       C  0.52749414  0.72790759  0.82248399     0.26600
C2386       C  0.53279579  0.71205894  0.82903571    -0.20600
C2387       C  0.53036557  0.69649808  0.80908948    -0.10200
C2388       C  0.52218524  0.69625292  0.78234632    -0.10700
C2389       C  0.51645732  0.71187882  0.77622963    -0.03700
C2390       C  0.51906062  0.72741405  0.79592389    -0.18800
H2391       H  0.55595160  0.83484162  0.86346994     0.10300
H2392       H  0.55573642  0.80768994  0.83187862     0.10400
H2393       H  0.51243136  0.75695311  0.88743736     0.10000
H2394       H  0.51233434  0.78394967  0.91853977     0.11100
H2395       H  0.53721804  0.76926365  0.81530526     0.11200
H2396       H  0.52854340  0.73966350  0.86572234     0.13100
H2397       H  0.53906806  0.71189190  0.84949215     0.09700
H2398       H  0.53493922  0.68475020  0.81456451     0.11700
H2399       H  0.50997623  0.71225278  0.75601058     0.08400
H2400       H  0.51406263  0.73881416  0.79037664     0.11100
C2401       C  0.80041741  0.85106805  0.93127220    -0.03500
C2402       C  0.81818768  0.87217055  0.93126763    -0.06100
C2403       C  0.81843137  0.88820911  0.94826911    -0.21200
C2404       C  0.80108351  0.88341593  0.96588077     0.24500
C2405       C  0.78290591  0.86258644  0.96485763    -0.18700
C2406       C  0.78261620  0.84661489  0.94782541    -0.08700
C2407       C  0.80247420  0.90036763  0.98517456    -0.19000
C2408       C  0.78432879  0.89413752  0.50500239    -0.23800
C2409       C  0.78623374  0.91005416  0.52633288     0.26600
C2410       C  0.76900896  0.90438583  0.54452781    -0.20600
C2411       C  0.77017024  0.91882927  0.56504317    -0.10200
C2412       C  0.78872780  0.93919959  0.56799876    -0.10700
C2413       C  0.80616512  0.94469234  0.55016081    -0.03700
C2414       C  0.80497140  0.93026967  0.52960062    -0.18800
H2415       H  0.83207175  0.87620612  0.91851116     0.10300
H2416       H  0.83246704  0.90422376  0.94830008     0.10400
H2417       H  0.76882408  0.85848397  0.97716283     0.10000
H2418       H  0.76856614  0.83062088  0.94811069     0.11100
H2419       H  0.81308696  0.91707113  0.97932025     0.11200
H2420       H  0.77296567  0.87726568  0.50923545     0.13100
H2421       H  0.75452804  0.88879934  0.54269256     0.09700
H2422       H  0.75650129  0.91400176  0.57859457     0.11700
H2423       H  0.82078647  0.96013844  0.55208947     0.08400
H2424       H  0.81892137  0.93492508  0.51673888     0.11100
C2425       C  0.78916911  0.94016192  0.68860846    -0.03500
C2426       C  0.77106971  0.92600119  0.70441003    -0.06100
C2427       C  0.77130041  0.91016180  0.72136006    -0.21200
C2428       C  0.78960359  0.90817966  0.72298300     0.24500
C2429       C  0.80772321  0.92249740  0.70729469    -0.18700
C2430       C  0.80753613  0.93830804  0.69058157    -0.08700
C2431       C  0.78901892  0.89051863  0.74014950    -0.19000
C2432       C  0.80680835  0.89093062  0.74934587    -0.23800
C2433       C  0.80684257  0.87367786  0.76653149     0.26600
C2434       C  0.82491674  0.87920236  0.78294681    -0.20600
C2435       C  0.82576272  0.86383700  0.79986399    -0.10200
C2436       C  0.80872836  0.84237792  0.80035471    -0.10700
C2437       C  0.79092986  0.83650329  0.78311169    -0.03700
C2438       C  0.78991579  0.85204681  0.76643679    -0.18800
H2439       H  0.75660123  0.92684057  0.70322098     0.10300
H2440       H  0.75705286  0.89927507  0.73304048     0.10400
H2441       H  0.82194274  0.92122023  0.70699162     0.10000
H2442       H  0.82173205  0.94872438  0.67851315     0.11100
H2443       H  0.77345115  0.87720344  0.74612289     0.11200
H2444       H  0.82228171  0.90516818  0.74556734     0.13100
H2445       H  0.83830431  0.89562858  0.78314109     0.09700
H2446       H  0.83974169  0.86880856  0.81282139     0.11700
H2447       H  0.77755912  0.82008302  0.78317317     0.08400
H2448       H  0.77597362  0.84703775  0.75345513     0.11100
C2449       C  0.73838815  0.00212422  0.67832671    -0.03500
C2450       C  0.71644936  0.98646771  0.67916888    -0.06100
C2451       C  0.70149105  0.99183830  0.68923893    -0.21200
C2452       C  0.70820245  0.01300239  0.69813997     0.24500
C2453       C  0.73019368  0.02814179  0.69903775    -0.18700
C2454       C  0.74506165  0.02278356  0.68932192    -0.08700
C2455       C  0.69242198  0.01951579  0.70621155    -0.19000
C2456       C  0.69547082  0.03897890  0.69854610    -0.23800
C2457       C  0.68329567  0.04923786  0.70895913     0.26600
C2458       C  0.68929687  0.06990174  0.69874054    -0.20600
C2459       C  0.68184170  0.08239871  0.71136994    -0.10200
C2460       C  0.66783025  0.07436935  0.73419187    -0.10700
C2461       C  0.66029151  0.05302587  0.74302045    -0.03700
C2462       C  0.66806067  0.04056582  0.73064606    -0.18800
H2463       H  0.71073619  0.97042212  0.67077350     0.10300
H2464       H  0.68463884  0.97979670  0.68880150     0.10400
H2465       H  0.73592340  0.04437067  0.70677560     0.10000
H2466       H  0.76178667  0.03521264  0.68932051     0.11100
H2467       H  0.67855257  0.00831960  0.71828179     0.11200
H2468       H  0.70877223  0.04875320  0.68463710     0.13100
H2469       H  0.70087895  0.07699539  0.68201189     0.09700
H2470       H  0.68798106  0.09884964  0.70430200     0.11700
H2471       H  0.64978845  0.04664067  0.76095733     0.08400
H2472       H  0.66301276  0.02477553  0.73926179     0.11100
C2473       C  0.73509618  0.98724506  0.56691832    -0.03500
C2474       C  0.72238810  0.99626749  0.57362420    -0.06100
C2475       C  0.70231966  0.98835837  0.56106327    -0.21200
C2476       C  0.69482127  0.97143193  0.54135691     0.24500
C2477       C  0.70853148  0.96397552  0.53290803    -0.18700
C2478       C  0.72832867  0.97159733  0.54576118    -0.08700
C2479       C  0.67237481  0.95935753  0.53108040    -0.19000
C2480       C  0.65603961  0.96138164  0.54096003    -0.23800
C2481       C  0.63368176  0.94535733  0.53320511     0.26600
C2482       C  0.62774266  0.91949942  0.03296625    -0.20600
C2483       C  0.60757115  0.90510894  0.02226168    -0.10200
C2484       C  0.59258418  0.91502825  0.51314300    -0.10700
C2485       C  0.59872546  0.93696549  0.51603769    -0.03700
C2486       C  0.61909366  0.95199437  0.52624939    -0.18800
H2487       H  0.72716395  0.00813214  0.59021746     0.10300
H2488       H  0.69248968  0.99485979  0.56789046     0.10400
H2489       H  0.70332728  0.95111722  0.51761323     0.10000
H2490       H  0.73780902  0.96431513  0.54036983     0.11100
H2491       H  0.66865195  0.94662460  0.51588317     0.11200
H2492       H  0.65873544  0.97438080  0.55503181     0.13100
H2493       H  0.63874327  0.91375474  0.03679534     0.09700
H2494       H  0.60386247  0.88878833  0.01759992     0.11700
H2495       H  0.58831659  0.94271729  0.50893786     0.08400
H2496       H  0.62386357  0.96893312  0.52726750     0.11100
C2497       C  0.50586795  0.13135082  0.61347261    -0.03500
C2498       C  0.49716042  0.11982623  0.63841088    -0.06100
C2499       C  0.50981863  0.11565954  0.65669061    -0.21200
C2500       C  0.53141278  0.12301824  0.65051714     0.24500
C2501       C  0.53992657  0.13423164  0.62535973    -0.18700
C2502       C  0.52742560  0.13845951  0.60730641    -0.08700
C2503       C  0.54467727  0.11856081  0.67022013    -0.19000
C2504       C  0.56613381  0.13131043  0.67159144    -0.23800
C2505       C  0.58024559  0.12827777  0.69130876     0.26600
C2506       C  0.60007755  0.14640037  0.69790941    -0.20600
C2507       C  0.61404600  0.14476181  0.71636126    -0.10200
C2508       C  0.60876335  0.12481834  0.72839249    -0.10700
C2509       C  0.58921616  0.10640185  0.72113720    -0.03700
C2510       C  0.57498460  0.10811785  0.70284436    -0.18800
H2511       H  0.48056483  0.11383760  0.64363375     0.10300
H2512       H  0.50275551  0.10674909  0.67576936     0.10400
H2513       H  0.55615545  0.13942943  0.61909656     0.10000
H2514       H  0.53470924  0.14706978  0.58812074     0.11100
H2515       H  0.53649629  0.10524044  0.68479597     0.11200
H2516       H  0.57389071  0.14577997  0.65881038     0.13100
H2517       H  0.60467555  0.16206797  0.68909099     0.09700
H2518       H  0.62902247  0.15923008  0.72136035     0.11700
H2519       H  0.58470611  0.09082993  0.73015970     0.08400
H2520       H  0.56005753  0.09370244  0.69765144     0.11100
C2521       C  0.51285194  0.11789170  0.98610419    -0.03500
C2522       C  0.50626790  0.09808365  0.97249384    -0.06100
C2523       C  0.52073369  0.09514624  0.95651254    -0.21200
C2524       C  0.54192394  0.11198879  0.95362742     0.24500
C2525       C  0.54888805  0.13120193  0.96889553    -0.18700
C2526       C  0.53446243  0.13414726  0.98487885    -0.08700
C2527       C  0.55606946  0.10956210  0.93343738    -0.19000
C2528       C  0.57102781  0.12656227  0.91891876    -0.23800
C2529       C  0.58470287  0.12528471  0.89687688     0.26600
C2530       C  0.60314756  0.14450036  0.88908715    -0.20600
C2531       C  0.61612789  0.14465511  0.86750134    -0.10200
C2532       C  0.61086200  0.12556175  0.85295696    -0.10700
C2533       C  0.59239482  0.10621956  0.86075685    -0.03700
C2534       C  0.57939219  0.10605797  0.88250896    -0.18800
H2535       H  0.48977603  0.08510165  0.97337723     0.10300
H2536       H  0.51511598  0.08007512  0.94531019     0.10400
H2537       H  0.56537607  0.14415971  0.96812742     0.10000
H2538       H  0.54295305  0.15138671  0.49504482     0.11100
H2539       H  0.55309226  0.09340464  0.92929590     0.11200
H2540       H  0.57330176  0.14248369  0.92297575     0.13100
H2541       H  0.60751068  0.15953678  0.89969147     0.09700
H2542       H  0.63021662  0.15984556  0.86206896     0.11700
H2543       H  0.58787671  0.09124333  0.84990356     0.08400
H2544       H  0.56501389  0.09100218  0.88737967     0.11100
C2545       C  0.45357251  0.26922995  0.84570926    -0.03500
C2546       C  0.43480928  0.25497437  0.86035846    -0.06100
C2547       C  0.43364990  0.23783909  0.87597871    -0.21200
C2548       C  0.45119595  0.23458371  0.87741130     0.24500
C2549       C  0.46977122  0.24861470  0.86223905    -0.18700
C2550       C  0.47097617  0.26573006  0.84686439    -0.08700
C2551       C  0.44963100  0.21638141  0.89452790    -0.19000
C2552       C  0.46701311  0.21648753  0.90484552    -0.23800
C2553       C  0.46672937  0.19950428  0.92313498     0.26600
C2554       C  0.48544705  0.20490822  0.93800815    -0.20600
C2555       C  0.48631144  0.19013842  0.95605793    -0.10200
C2556       C  0.46854970  0.16930511  0.95955721    -0.10700
C2557       C  0.44995527  0.16342404  0.94394473    -0.03700
C2558       C  0.44899079  0.17842287  0.92595270    -0.18800
H2559       H  0.42098206  0.25696341  0.85961815     0.10300
H2560       H  0.41903058  0.22716242  0.88712489     0.10400
H2561       H  0.48336817  0.24628133  0.86161265     0.10000
H2562       H  0.48554427  0.27602238  0.83539577     0.11100
H2563       H  0.43379132  0.20329173  0.89993911     0.11200
H2564       H  0.48262352  0.23057635  0.90119310     0.13100
H2565       H  0.49944700  0.22087266  0.93610275     0.09700
H2566       H  0.50112125  0.19941186  0.47306502     0.11700
H2567       H  0.43598063  0.14751344  0.94632083     0.08400
H2568       H  0.43441572  0.17343522  0.91440047     0.11100
C2569       C  0.46242038  0.27925258  0.72682584    -0.03500
C2570       C  0.44334040  0.26008354  0.72026783    -0.06100
C2571       C  0.44276038  0.24659045  0.69892292    -0.21200
C2572       C  0.46112558  0.25188991  0.68334405     0.24500
C2573       C  0.48031425  0.27109935  0.68967388    -0.18700
C2574       C  0.48092215  0.28468384  0.71123682    -0.08700
C2575       C  0.45952683  0.23617539  0.66192382    -0.19000
C2576       C  0.47315575  0.24091172  0.64040915    -0.23800
C2577       C  0.47123902  0.22398537  0.62075276     0.26600
C2578       C  0.48982292  0.22588698  0.60897456    -0.20600
C2579       C  0.48880613  0.20900681  0.59309519    -0.10200
C2580       C  0.46911546  0.18993774  0.58860352    -0.10700
C2581       C  0.45035032  0.18868141  0.59880084    -0.03700
C2582       C  0.45136917  0.20558665  0.61453431    -0.18800
H2583       H  0.42874049  0.25534949  0.73173607     0.10300
H2584       H  0.42782089  0.23185174  0.69459585     0.10400
H2585       H  0.49495752  0.27544851  0.67861605     0.10000
H2586       H  0.49589063  0.29926922  0.71589637     0.11100
H2587       H  0.44634964  0.21971505  0.66432496     0.11200
H2588       H  0.48670474  0.25713932  0.63798980     0.13100
H2589       H  0.50526573  0.24004073  0.61311583     0.09700
H2590       H  0.50355031  0.21055046  0.58532996     0.11700
H2591       H  0.43489330  0.17441225  0.59517737     0.08400
H2592       H  0.43658928  0.20401554  0.62214279     0.11100
C2593       C  0.26668739  0.03743652  0.89891539    -0.03500
C2594       C  0.28590797  0.04120970  0.88684732    -0.06100
C2595       C  0.30530970  0.05338473  0.90135066    -0.21200
C2596       C  0.30585497  0.06198240  0.92812305     0.24500
C2597       C  0.28668248  0.05921989  0.93925780    -0.18700
C2598       C  0.26740405  0.04699626  0.92493163    -0.08700
C2599       C  0.32659305  0.07362528  0.94369004    -0.19000
C2600       C  0.32835014  0.07738000  0.97167810    -0.23800
C2601       C  0.34922111  0.08806570  0.98699619     0.26600
C2602       C  0.35275335  0.08262280  0.51275001    -0.20600
C2603       C  0.37203812  0.09081371  0.52765868    -0.10200
C2604       C  0.39144365  0.10547619  0.51483346    -0.10700
C2605       C  0.38801042  0.10970903  0.98736282    -0.03700
C2606       C  0.36860175  0.10179507  0.97333715    -0.18800
H2607       H  0.28578572  0.03378665  0.86705269     0.10300
H2608       H  0.31985742  0.05545548  0.89203651     0.10400
H2609       H  0.28632380  0.06618493  0.95916428     0.10000
H2610       H  0.25278503  0.04440393  0.93467787     0.11100
H2611       H  0.34092284  0.07812997  0.93160985     0.11200
H2612       H  0.31401424  0.07119432  0.98432043     0.13100
H2613       H  0.33802170  0.07061950  0.52257470     0.09700
H2614       H  0.37192526  0.08458663  0.54829610     0.11700
H2615       H  0.40267936  0.11931837  0.97570527     0.08400
H2616       H  0.36896764  0.10615151  0.95163941     0.11100
C2617       C  0.20052668  0.14447094  0.56394193    -0.03500
C2618       C  0.18023084  0.12746618  0.55612910    -0.06100
C2619       C  0.17808171  0.11087940  0.53856527    -0.21200
C2620       C  0.19609772  0.11047560  0.52861477     0.24500
C2621       C  0.21652440  0.12762551  0.53600830    -0.18700
C2622       C  0.21869887  0.14451739  0.55338575    -0.08700
C2623       C  0.19254964  0.09233646  0.50966250    -0.19000
C2624       C  0.20277796  0.08293575  0.00474288    -0.23800
C2625       C  0.19770050  0.06423423  0.98578906     0.26600
C2626       C  0.20901467  0.05315835  0.98851359    -0.20600
C2627       C  0.20505336  0.03601789  0.97043180    -0.10200
C2628       C  0.18985167  0.02972127  0.94888028    -0.10700
C2629       C  0.17850408  0.04078656  0.94627121    -0.03700
C2630       C  0.18236955  0.05776534  0.96435361    -0.18800
H2631       H  0.16587585  0.12691665  0.56369103     0.10300
H2632       H  0.16216250  0.09809308  0.53300289     0.10400
H2633       H  0.23080302  0.12817844  0.52818961     0.10000
H2634       H  0.23456346  0.15734942  0.55903397     0.11100
H2635       H  0.17698764  0.08362492  0.49974489     0.11200
H2636       H  0.21824561  0.09092380  0.01502005     0.13100
H2637       H  0.22105321  0.05785865  0.00462210     0.09700
H2638       H  0.21431122  0.02810726  0.97285076     0.11700
H2639       H  0.16681119  0.03659631  0.92980609     0.08400
H2640       H  0.17372670  0.06617849  0.96081167     0.11100
C2641       C  0.19517305  0.04890904  0.81990655    -0.03500
C2642       C  0.17683071  0.05063129  0.81674233    -0.06100
C2643       C  0.17749598  0.06715205  0.80057343    -0.21200
C2644       C  0.19641086  0.08216139  0.78699927     0.24500
C2645       C  0.21503244  0.08106995  0.79118574    -0.18700
C2646       C  0.21439331  0.06458535  0.80741518    -0.08700
C2647       C  0.19591091  0.09842012  0.76838707    -0.19000
C2648       C  0.20913950  0.10727472  0.74636254    -0.23800
C2649       C  0.20754524  0.12208833  0.72615704     0.26600
C2650       C  0.22546745  0.13567621  0.70980325    -0.20600
C2651       C  0.22442922  0.14926058  0.68976024    -0.10200
C2652       C  0.20533963  0.14942099  0.68547374    -0.10700
C2653       C  0.18735937  0.13574519  0.70177873    -0.03700
C2654       C  0.18839979  0.12216697  0.72179542    -0.18800
H2655       H  0.16178416  0.03889498  0.82619157     0.10300
H2656       H  0.16301065  0.06780069  0.79794111     0.10400
H2657       H  0.23012922  0.09285081  0.78196179     0.10000
H2658       H  0.22887683  0.06389433  0.80970816     0.11100
H2659       H  0.18348941  0.10226792  0.77228037     0.11200
H2660       H  0.22153393  0.10336711  0.74251039     0.13100
H2661       H  0.24032324  0.13575311  0.71251547     0.09700
H2662       H  0.23855918  0.15950665  0.67746794     0.11700
H2663       H  0.17232382  0.13524046  0.69877716     0.08400
H2664       H  0.17397072  0.11138561  0.73315273     0.11100
C2665       C  0.37334329  0.85912990  0.63720746    -0.03500
C2666       C  0.39117731  0.85946679  0.64940964    -0.06100
C2667       C  0.40901631  0.86374761  0.63341111    -0.21200
C2668       C  0.40944237  0.86732657  0.60459186     0.24500
C2669       C  0.39181633  0.86739014  0.59222591    -0.18700
C2670       C  0.37400473  0.86353738  0.60847239    -0.08700
C2671       C  0.42852999  0.87079991  0.58838127    -0.19000
C2672       C  0.42726764  0.86368265  0.56197624    -0.23800
C2673       C  0.44548353  0.86414034  0.54670380     0.26600
C2674       C  0.44075779  0.84889819  0.52542443    -0.20600
C2675       C  0.45704920  0.84877600  0.50993800    -0.10200
C2676       C  0.47865724  0.86418972  0.51489412    -0.10700
C2677       C  0.48351915  0.87948850  0.53631588    -0.03700
C2678       C  0.46711475  0.87941355  0.55217363    -0.18800
H2679       H  0.39146985  0.85660282  0.67159457     0.10300
H2680       H  0.42239723  0.86381496  0.64354448     0.10400
H2681       H  0.39186471  0.87062058  0.57012489     0.10000
H2682       H  0.36068527  0.86369676  0.59854078     0.11100
H2683       H  0.44354045  0.87724316  0.59960266     0.11200
H2684       H  0.41172856  0.85540476  0.55187432     0.13100
H2685       H  0.42430609  0.83697921  0.52068625     0.09700
H2686       H  0.45266205  0.83774478  0.98906652     0.11700
H2687       H  0.49996046  0.89167347  0.54057194     0.08400
H2688       H  0.47140579  0.89167197  0.56809355     0.11100
C2689       C  0.48704944  0.87133701  0.89533643    -0.03500
C2690       C  0.48484027  0.88970085  0.89510419    -0.06100
C2691       C  0.47148820  0.89151321  0.87564971    -0.21200
C2692       C  0.46022358  0.87515046  0.85584486     0.24500
C2693       C  0.46270878  0.85692362  0.85577728    -0.18700
C2694       C  0.47603077  0.85509971  0.87523312    -0.08700
C2695       C  0.44492057  0.87697033  0.83708588    -0.19000
C2696       C  0.43767192  0.86589798  0.81294561    -0.23800
C2697       C  0.42071319  0.86599683  0.79572408     0.26600
C2698       C  0.40861239  0.84840032  0.77786947    -0.20600
C2699       C  0.39175676  0.84718381  0.76231743    -0.10200
C2700       C  0.38679386  0.86370806  0.76405557    -0.10700
C2701       C  0.39939032  0.88171593  0.78117365    -0.03700
C2702       C  0.41619276  0.88288731  0.79681427    -0.18800
H2703       H  0.49306648  0.90250135  0.91034868     0.10300
H2704       H  0.46973803  0.90562404  0.87629549     0.10400
H2705       H  0.45384288  0.84359327  0.84150861     0.10000
H2706       H  0.47728593  0.84069962  0.87490805     0.11100
H2707       H  0.43910606  0.88745587  0.84404715     0.11200
H2708       H  0.44355239  0.85546894  0.80597593     0.13100
H2709       H  0.41189492  0.83528822  0.77643302     0.09700
H2710       H  0.38247113  0.83317017  0.74915738     0.11700
H2711       H  0.39607843  0.89479439  0.78283573     0.08400
H2712       H  0.42557901  0.89709967  0.80953759     0.11100
C2713       C  0.28311261  0.88641064  0.72856890    -0.03500
C2714       C  0.27902420  0.90159092  0.71600565    -0.06100
C2715       C  0.26672456  0.90878249  0.73016341    -0.21200
C2716       C  0.25844406  0.90102477  0.75710067     0.24500
C2717       C  0.26127200  0.88463078  0.76854086    -0.18700
C2718       C  0.27351253  0.87753912  0.75451547    -0.08700
C2719       C  0.24725740  0.91053271  0.77275444    -0.19000
C2720       C  0.24528141  0.91007805  0.80101732    -0.23800
C2721       C  0.23539367  0.92093610  0.81664769     0.26600
C2722       C  0.24095510  0.92702534  0.84483932    -0.20600
C2723       C  0.23344084  0.93904841  0.85919987    -0.10200
C2724       C  0.22016022  0.94509878  0.84555148    -0.10700
C2725       C  0.21335110  0.93755454  0.81813443    -0.03700
C2726       C  0.22074910  0.92558729  0.80392476    -0.18800
H2727       H  0.28640647  0.90886066  0.69621104     0.10300
H2728       H  0.26449850  0.92117060  0.72059880     0.10400
H2729       H  0.25444371  0.87748292  0.78856878     0.10000
H2730       H  0.27629662  0.86567014  0.76459691     0.11100
H2731       H  0.24183721  0.91955194  0.76051257     0.11200
H2732       H  0.25249072  0.90283540  0.81348419     0.13100
H2733       H  0.25188856  0.92328367  0.85539744     0.09700
H2734       H  0.23897608  0.94463535  0.88025320     0.11700
H2735       H  0.20277587  0.94161562  0.80720131     0.08400
H2736       H  0.21517838  0.92035148  0.78282209     0.11100
C2737       C  0.37701003  0.93393835  0.68148674    -0.03500
C2738       C  0.38227139  0.95338055  0.69493871    -0.06100
C2739       C  0.39452915  0.97311444  0.68092657    -0.21200
C2740       C  0.40165400  0.97369082  0.65332534     0.24500
C2741       C  0.39782243  0.95428675  0.64091950    -0.18700
C2742       C  0.38555462  0.93468428  0.65478470    -0.08700
C2743       C  0.41242437  0.99462648  0.63795465    -0.19000
C2744       C  0.41318308  0.99624322  0.60970421    -0.23800
C2745       C  0.42197837  0.01718057  0.59448181     0.26600
C2746       C  0.41559890  0.01733094  0.56668442    -0.20600
C2747       C  0.42204962  0.03690953  0.55271922    -0.10200
C2748       C  0.43492683  0.05662038  0.56648066    -0.10700
C2749       C  0.44239621  0.05640435  0.59353071    -0.03700
C2750       C  0.43619730  0.03700320  0.60726745    -0.18800
H2751       H  0.37583781  0.95323820  0.71543291     0.10300
H2752       H  0.39759360  0.98789086  0.69119189     0.10400
H2753       H  0.40383799  0.95403085  0.62030479     0.10000
H2754       H  0.38201465  0.91988580  0.64411137     0.11100
H2755       H  0.41828125  0.00911496  0.65058647     0.11200
H2756       H  0.40556886  0.98165391  0.59707399     0.13100
H2757       H  0.40494595  0.00226318  0.55610575     0.09700
H2758       H  0.41616098  0.03663954  0.53185592     0.11700
H2759       H  0.45280372  0.07142060  0.60440306     0.08400
H2760       H  0.44243562  0.03774639  0.62799337     0.11100
C2761       C  0.85327704  0.79185586  0.81899450    -0.03500
C2762       C  0.87437227  0.80937259  0.81860557    -0.06100
C2763       C  0.88997273  0.80849417  0.80248834    -0.21200
C2764       C  0.88486504  0.79017272  0.78630447     0.24500
C2765       C  0.86397259  0.77222437  0.78767510    -0.18700
C2766       C  0.84834179  0.77312153  0.80375563    -0.08700
C2767       C  0.90168577  0.79084487  0.76786832    -0.19000
C2768       C  0.89748501  0.77784658  0.74553981    -0.23800
C2769       C  0.91408195  0.78025502  0.72536608     0.26600
C2770       C  0.91020355  0.76233358  0.70914839    -0.20600
C2771       C  0.92462951  0.76426284  0.68843750    -0.10200
C2772       C  0.94320429  0.78426056  0.68331489    -0.10700
C2773       C  0.94724125  0.80218083  0.69977125    -0.03700
C2774       C  0.93279103  0.80023918  0.72051711    -0.18800
H2775       H  0.87875234  0.82402750  0.83019932     0.10300
H2776       H  0.90596068  0.82245272  0.80203697     0.10400
H2777       H  0.85947673  0.75745063  0.77640711     0.10000
H2778       H  0.83229823  0.75925659  0.80385252     0.11100
H2779       H  0.91804862  0.80331855  0.77212915     0.11200
H2780       H  0.88126096  0.76516279  0.74117407     0.13100
H2781       H  0.89585204  0.74682934  0.71234327     0.09700
H2782       H  0.92104589  0.75009453  0.67618553     0.11700
H2783       H  0.96130160  0.81783152  0.69619701     0.08400
H2784       H  0.93601242  0.81461860  0.73192970     0.11100
C2785       C  0.94098044  0.79014124  0.56221438    -0.03500
C2786       C  0.94567088  0.81047966  0.55225812    -0.06100
C2787       C  0.93101540  0.81262381  0.53572161    -0.21200
C2788       C  0.91104248  0.79463853  0.52922419     0.24500
C2789       C  0.90619973  0.77416866  0.53908033    -0.18700
C2790       C  0.92115592  0.77193372  0.55525152    -0.08700
C2791       C  0.89647725  0.79806972  0.51087910    -0.19000
C2792       C  0.87968701  0.77905275  0.99921971    -0.23800
C2793       C  0.86435238  0.78241933  0.98206173     0.26600
C2794       C  0.86627380  0.78258954  0.95288448    -0.20600
C2795       C  0.85322835  0.78677072  0.93570797    -0.10200
C2796       C  0.83744094  0.79046160  0.94708445    -0.10700
C2797       C  0.83467015  0.78928588  0.97626598    -0.03700
C2798       C  0.84814437  0.78549920  0.99365809    -0.18800
H2799       H  0.96075782  0.82480397  0.55725233     0.10300
H2800       H  0.93522505  0.82855103  0.52821665     0.10400
H2801       H  0.90160704  0.75845509  0.02032689     0.10000
H2802       H  0.91703267  0.75606791  0.56285490     0.11100
H2803       H  0.90435845  0.81146841  0.49639774     0.11200
H2804       H  0.88748790  0.77139128  0.98886104     0.13100
H2805       H  0.87836729  0.78003359  0.94326636     0.09700
H2806       H  0.85558575  0.78721569  0.91329597     0.11700
H2807       H  0.82256143  0.79191455  0.98563173     0.08400
H2808       H  0.88489161  0.82435719  0.48304773     0.11100
C2809       C  0.04473670  0.84282936  0.55952581    -0.03500
C2810       C  0.03990109  0.85765848  0.54734000    -0.06100
C2811       C  0.05311065  0.87191064  0.52670408    -0.21200
C2812       C  0.07127259  0.87151255  0.51749978     0.24500
C2813       C  0.07616136  0.85668167  0.52964129    -0.18700
C2814       C  0.06299844  0.84248040  0.55041061    -0.08700
C2815       C  0.08526824  0.88763192  0.49642339    -0.19000
C2816       C  0.09303045  0.88243681  0.98084437    -0.23800
C2817       C  0.10779394  0.89919465  0.96096422     0.26600
C2818       C  0.12741834  0.90064204  0.95516064    -0.20600
C2819       C  0.14257207  0.91725097  0.93839974    -0.10200
C2820       C  0.13829888  0.93265272  0.92675507    -0.10700
C2821       C  0.11815471  0.93050898  0.93132993    -0.03700
C2822       C  0.10302783  0.91393609  0.94829082    -0.18800
H2823       H  0.02601578  0.85843265  0.55393314     0.10300
H2824       H  0.04912059  0.88332896  0.51788157     0.10400
H2825       H  0.09038128  0.85632365  0.52379427     0.10000
H2826       H  0.06723408  0.83132477  0.55946554     0.11100
H2827       H  0.08438599  0.90225953  0.49501140     0.11200
H2828       H  0.09418908  0.86799270  0.98255773     0.13100
H2829       H  0.13135608  0.88933455  0.96446519     0.09700
H2830       H  0.15786149  0.91832271  0.93516699     0.11700
H2831       H  0.11427585  0.94197167  0.92243085     0.08400
H2832       H  0.08772846  0.91280592  0.95155660     0.11100
C2833       C  0.04937520  0.84044333  0.68100264    -0.03500
C2834       C  0.06160145  0.83448419  0.69748171    -0.06100
C2835       C  0.07732465  0.84940497  0.71567918    -0.21200
C2836       C  0.08157133  0.87077768  0.71740788     0.24500
C2837       C  0.06935483  0.87678775  0.70102088    -0.18700
C2838       C  0.05339988  0.86178818  0.68314502    -0.08700
C2839       C  0.09778243  0.88594215  0.73782975    -0.19000
C2840       C  0.10971074  0.90752547  0.73390294    -0.23800
C2841       C  0.12477048  0.92262570  0.75545900     0.26600
C2842       C  0.14295935  0.94210651  0.74726447    -0.20600
C2843       C  0.15662987  0.95708403  0.76733045    -0.10200
C2844       C  0.15200396  0.95312784  0.79598827    -0.10700
C2845       C  0.13384028  0.93358807  0.80408586    -0.03700
C2846       C  0.12047624  0.91851767  0.78414950    -0.18800
H2847       H  0.05901736  0.81824087  0.69635269     0.10300
H2848       H  0.08633900  0.84429525  0.72827822     0.10400
H2849       H  0.07180170  0.89296872  0.70239781     0.10000
H2850       H  0.04436179  0.86700310  0.67078128     0.11100
H2851       H  0.10037081  0.87892263  0.75639354     0.11200
H2852       H  0.10872169  0.91434755  0.71414031     0.13100
H2853       H  0.14654294  0.94575968  0.72530212     0.09700
H2854       H  0.17044721  0.97200152  0.76042299     0.11700
H2855       H  0.12984697  0.92996746  0.82597856     0.08400
H2856       H  0.10637101  0.90396928  0.79129950     0.11100
C2857       C  0.00077421  0.73771546  0.55941163    -0.03500
C2858       C  0.98519453  0.71557584  0.55853018    -0.06100
C2859       C  0.99029893  0.70046880  0.54797571    -0.21200
C2860       C  0.01109285  0.70728865  0.53862472     0.24500
C2861       C  0.02602716  0.72948945  0.53722417    -0.18700
C2862       C  0.02090568  0.74453866  0.54735387    -0.08700
C2863       C  0.01772507  0.69139928  0.53168375    -0.19000
C2864       C  0.03602093  0.69388048  0.54238468    -0.23800
C2865       C  0.04686015  0.68199427  0.53324929     0.26600
C2866       C  0.06786276  0.68980892  0.54262506    -0.20600
C2867       C  0.08058941  0.68248003  0.53068243    -0.10200
C2868       C  0.07244642  0.66682192  0.50947453    -0.10700
C2869       C  0.05143865  0.65897280  0.00439387    -0.03700
C2870       C  0.03809843  0.66496126  0.51365087    -0.18800
H2871       H  0.96955143  0.70977059  0.56768085     0.10300
H2872       H  0.97847875  0.68341544  0.54880655     0.10400
H2873       H  0.04200344  0.73515251  0.52927550     0.10000
H2874       H  0.03323088  0.76144155  0.54735382     0.11100
H2875       H  0.00774967  0.67818976  0.51771903     0.11200
H2876       H  0.04462944  0.70690672  0.55735012     0.13100
H2877       H  0.07498054  0.70272045  0.55791897     0.09700
H2878       H  0.09722092  0.68999313  0.53683838     0.11700
H2879       H  0.04441029  0.64672558  0.98824330     0.08400
H2880       H  0.02306142  0.66076543  0.00882142     0.11100
C2881       C  0.17409803  0.71305491  0.51786488    -0.03500
C2882       C  0.17676809  0.73380163  0.52031011    -0.06100
C2883       C  0.18970262  0.74792902  0.54131010    -0.21200
C2884       C  0.20016383  0.74166659  0.56053157     0.24500
C2885       C  0.19723547  0.72075573  0.55838147    -0.18700
C2886       C  0.18432872  0.70663225  0.53730603    -0.08700
C2887       C  0.21502718  0.75800678  0.58102326    -0.19000
C2888       C  0.22304454  0.75346224  0.60374815    -0.23800
C2889       C  0.23957482  0.77052280  0.62205668     0.26600
C2890       C  0.25341182  0.76595425  0.63716092    -0.20600
C2891       C  0.27029225  0.78210927  0.65274635    -0.10200
C2892       C  0.27357299  0.80316281  0.65369667    -0.10700
C2893       C  0.25901806  0.80739709  0.63977009    -0.03700
C2894       C  0.24217079  0.79127575  0.62427011    -0.18800
H2895       H  0.16912597  0.73929609  0.50571589     0.10300
H2896       H  0.19173637  0.76394508  0.54234002     0.10400
H2897       H  0.20530251  0.71532684  0.57224798     0.10000
H2898       H  0.18259066  0.69075196  0.53605035     0.11100
H2899       H  0.22005253  0.77468919  0.57638733     0.11200
H2900       H  0.21839695  0.73689272  0.60842344     0.13100
H2901       H  0.25158073  0.75002334  0.63616688     0.09700
H2902       H  0.28107556  0.77823431  0.66345306     0.11700
H2903       H  0.26081294  0.82331728  0.64044850     0.08400
H2904       H  0.23131709  0.79525065  0.61404269     0.11100
C2905       C  0.29042021  0.81895494  0.78331728    -0.03500
C2906       C  0.28406973  0.82817428  0.80449949    -0.06100
C2907       C  0.26727173  0.81496209  0.82273697    -0.21200
C2908       C  0.25664763  0.79230683  0.82038535     0.24500
C2909       C  0.26302611  0.78319351  0.79909948    -0.18700
C2910       C  0.27969306  0.79630260  0.78099288    -0.08700
C2911       C  0.23843652  0.77854862  0.83946970    -0.19000
C2912       C  0.23236476  0.75777191  0.84505130    -0.23800
C2913       C  0.21390891  0.74289639  0.86300398     0.26600
C2914       C  0.21293988  0.72391726  0.87245920    -0.20600
C2915       C  0.19599136  0.70915251  0.88907888    -0.10200
C2916       C  0.17931884  0.71280056  0.89649426    -0.10700
C2917       C  0.17988710  0.73150650  0.88647513    -0.03700
C2918       C  0.19704011  0.74646237  0.86993354    -0.18800
H2919       H  0.29175589  0.84556264  0.80660647     0.10300
H2920       H  0.26252308  0.82245212  0.83867782     0.10400
H2921       H  0.25483323  0.76592532  0.79569341     0.10000
H2922       H  0.28393461  0.78857870  0.76477871     0.11100
H2923       H  0.23034488  0.78595842  0.84961568     0.11200
H2924       H  0.24188317  0.75125692  0.83678221     0.13100
H2925       H  0.22552277  0.72057106  0.86721603     0.09700
H2926       H  0.19605593  0.69489965  0.89635123     0.11700
H2927       H  0.16734375  0.73483589  0.89197290     0.08400
H2928       H  0.19688435  0.76060179  0.86251444     0.11100
C2929       C  0.91901036  0.58765064  0.73298175    -0.03500
C2930       C  0.91292492  0.59232239  0.70728027    -0.06100
C2931       C  0.92668221  0.61152351  0.69315574    -0.21200
C2932       C  0.94632386  0.62672248  0.70505764     0.24500
C2933       C  0.95289668  0.62150347  0.73001678    -0.18700
C2934       C  0.93941590  0.60200015  0.74369969    -0.08700
C2935       C  0.95889637  0.64845146  0.69221429    -0.19000
C2936       C  0.96757016  0.66658482  0.70783559    -0.23800
C2937       C  0.97646311  0.68840559  0.69544212     0.26600
C2938       C  0.97170870  0.70317503  0.70801885    -0.20600
C2939       C  0.97790978  0.72303243  0.69531382    -0.10200
C2940       C  0.98974738  0.72881402  0.67039254    -0.10700
C2941       C  0.99573786  0.71466324  0.65874120    -0.03700
C2942       C  0.98893812  0.69447550  0.67097849    -0.18800
H2943       H  0.89718372  0.58157815  0.69880760     0.10300
H2944       H  0.92135845  0.61516626  0.67382044     0.10400
H2945       H  0.96810556  0.63280010  0.73938504     0.10000
H2946       H  0.94428787  0.59889041  0.76375597     0.11100
H2947       H  0.95855366  0.64968423  0.66955257     0.11200
H2948       H  0.96560480  0.66521574  0.73045317     0.13100
H2949       H  0.96216988  0.69884560  0.72696017     0.09700
H2950       H  0.97286332  0.73356595  0.70438046     0.11700
H2951       H  0.00449964  0.71864171  0.63916941     0.08400
H2952       H  0.99305742  0.68349277  0.66110034     0.11100
C2953       C  0.81620958  0.53239889  0.72436079    -0.03500
C2954       C  0.80344809  0.51306199  0.70960792    -0.06100
C2955       C  0.79039071  0.51228794  0.68777084    -0.21200
C2956       C  0.78981199  0.53078193  0.67989137     0.24500
C2957       C  0.80288119  0.55032073  0.69424751    -0.18700
C2958       C  0.81597674  0.55109075  0.71623821    -0.08700
C2959       C  0.77424120  0.52835200  0.65800996    -0.19000
C2960       C  0.77457341  0.54486220  0.64427435    -0.23800
C2961       C  0.75727952  0.54160768  0.62479040     0.26600
C2962       C  0.75247248  0.55812428  0.62204110    -0.20600
C2963       C  0.73499409  0.55492025  0.60609817    -0.10200
C2964       C  0.72200979  0.53511303  0.59234905    -0.10700
C2965       C  0.72756587  0.51901587  0.59378669    -0.03700
C2966       C  0.74507741  0.52224347  0.60974055    -0.18800
H2967       H  0.80324434  0.49835190  0.71518846     0.10300
H2968       H  0.78044913  0.49701340  0.67717367     0.10400
H2969       H  0.80262458  0.56486438  0.68932300     0.10000
H2970       H  0.82563350  0.56624664  0.72718722     0.11100
H2971       H  0.76144782  0.51196876  0.65371784     0.11200
H2972       H  0.78697787  0.56137792  0.64864996     0.13100
H2973       H  0.76178465  0.57328462  0.63315053     0.09700
H2974       H  0.73129152  0.56774715  0.60527532     0.11700
H2975       H  0.71809326  0.50370324  0.58310016     0.08400
H2976       H  0.74885063  0.50948227  0.61039846     0.11100
C2977       C  0.81221634  0.53828153  0.84700371    -0.03500
C2978       C  0.81879875  0.55393032  0.86827065    -0.06100
C2979       C  0.80381392  0.55414438  0.88675226    -0.21200
C2980       C  0.78182995  0.53908055  0.88406976     0.24500
C2981       C  0.77520963  0.52367948  0.86245469    -0.18700
C2982       C  0.79019907  0.52324142  0.84428908    -0.08700
C2983       C  0.76654909  0.53881300  0.90541120    -0.19000
C2984       C  0.74540118  0.53066629  0.90083694    -0.23800
C2985       C  0.73004585  0.52890233  0.92312352     0.26600
C2986       C  0.71116461  0.52873555  0.91575060    -0.20600
C2987       C  0.69598645  0.52600775  0.93616203    -0.10200
C2988       C  0.69909414  0.52282859  0.96436915    -0.10700
C2989       C  0.71797010  0.52291788  0.97163908    -0.03700
C2990       C  0.73322531  0.52597291  0.95138923    -0.18800
H2991       H  0.83558875  0.56574464  0.87099835     0.10300
H2992       H  0.80943447  0.56607686  0.90332169     0.10400
H2993       H  0.75852913  0.51148051  0.86001418     0.10000
H2994       H  0.78450375  0.51102838  0.82806857     0.11100
H2995       H  0.77316814  0.54595484  0.92560263     0.11200
H2996       H  0.73906203  0.52540454  0.87995615     0.13100
H2997       H  0.70815245  0.53071721  0.89412513     0.09700
H2998       H  0.68163894  0.52596756  0.92978278     0.11700
H2999       H  0.71784388  0.51503182  0.49254995     0.08400
H3000       H  0.74721784  0.52539344  0.95790275     0.11100
C3001       C  0.92433160  0.58661635  0.84394035    -0.03500
C3002       C  0.93302638  0.60902758  0.84049354    -0.06100
C3003       C  0.95380641  0.62370833  0.84993360    -0.21200
C3004       C  0.96630232  0.61618381  0.86250928     0.24500
C3005       C  0.95693945  0.59399300  0.86800972    -0.18700
C3006       C  0.93623795  0.57942559  0.85893271    -0.08700
C3007       C  0.98926011  0.63125820  0.86909589    -0.19000
C3008       C  0.00400503  0.62550103  0.86378451    -0.23800
C3009       C  0.02688743  0.63746896  0.87262772     0.26600
C3010       C  0.03950429  0.62840414  0.86556012    -0.20600
C3011       C  0.05958886  0.63605426  0.87763687    -0.10200
C3012       C  0.06775322  0.65321557  0.89684208    -0.10700
C3013       C  0.05613169  0.66371383  0.90195505    -0.03700
C3014       C  0.03578656  0.65584589  0.89009631    -0.18800
H3015       H  0.92433811  0.61513467  0.82899456     0.10300
H3016       H  0.96055925  0.64079132  0.84593854     0.10400
H3017       H  0.96590892  0.58779142  0.87862510     0.10000
H3018       H  0.93002502  0.56235135  0.86233244     0.11100
H3019       H  0.99383281  0.64698653  0.87774103     0.11200
H3020       H  0.99863070  0.61018021  0.85317082     0.13100
H3021       H  0.03324688  0.61440014  0.85197195     0.09700
H3022       H  0.06817811  0.62764959  0.87330180     0.11700
H3023       H  0.06194024  0.67681981  0.91696037     0.08400
H3024       H  0.02674027  0.66342979  0.89603263     0.11100
C3025       C  0.71448978  0.18222095  0.85002375    -0.03500
C3026       C  0.71230318  0.20024039  0.85596433    -0.06100
C3027       C  0.72694839  0.21694611  0.87316718    -0.21200
C3028       C  0.74438582  0.21636155  0.88480135     0.24500
C3029       C  0.74647362  0.19817977  0.87942510    -0.18700
C3030       C  0.73164959  0.18127992  0.86223223    -0.08700
C3031       C  0.75930652  0.23467281  0.90321544    -0.19000
C3032       C  0.77965092  0.24005268  0.90893009    -0.23800
C3033       C  0.79404365  0.25848395  0.92766315     0.26600
C3034       C  0.81635340  0.26790803  0.92526171    -0.20600
C3035       C  0.83024754  0.28464065  0.94330569    -0.10200
C3036       C  0.82210884  0.29212335  0.96446879    -0.10700
C3037       C  0.79979283  0.28276029  0.96673237    -0.03700
C3038       C  0.78596900  0.26619481  0.94867073    -0.18800
H3039       H  0.69931422  0.20160129  0.84707951     0.10300
H3040       H  0.72475521  0.23058343  0.87713192     0.10400
H3041       H  0.75934672  0.19682302  0.88863322     0.10000
H3042       H  0.73381481  0.16765203  0.85816354     0.11100
H3043       H  0.75339384  0.24482006  0.91129941     0.11200
H3044       H  0.78632880  0.23120950  0.89886424     0.13100
H3045       H  0.82305506  0.26219736  0.90948447     0.09700
H3046       H  0.84764964  0.29293656  0.43943343     0.11700
H3047       H  0.79291433  0.28799044  0.98287283     0.08400
H3048       H  0.76895266  0.25905629  0.95194617     0.11100
C3049       C  0.81225782  0.27065113  0.59456520    -0.03500
C3050       C  0.81748728  0.25659899  0.60823657    -0.06100
C3051       C  0.80231281  0.23958838  0.62453231    -0.21200
C3052       C  0.78169377  0.23638715  0.62778396     0.24500
C3053       C  0.77607499  0.24969160  0.61292877    -0.18700
C3054       C  0.79122667  0.26667036  0.59653077    -0.08700
C3055       C  0.76671851  0.21941504  0.64734880    -0.19000
C3056       C  0.75167536  0.22114343  0.66177482    -0.23800
C3057       C  0.73769618  0.20567613  0.68362153     0.26600
C3058       C  0.72037776  0.20739664  0.69349616    -0.20600
C3059       C  0.70726593  0.19397996  0.71485981    -0.10200
C3060       C  0.71128280  0.17859357  0.72709238    -0.10700
C3061       C  0.72856616  0.17678088  0.71722476    -0.03700
C3062       C  0.74164637  0.19015150  0.69575345    -0.18800
H3063       H  0.83348395  0.25907336  0.60698871     0.10300
H3064       H  0.80693967  0.22937566  0.63547427     0.10400
H3065       H  0.76006770  0.24715473  0.61405337     0.10000
H3066       H  0.78658785  0.27700616  0.58597396     0.11100
H3067       H  0.76924807  0.20597664  0.65106558     0.11200
H3068       H  0.74979102  0.23502018  0.65807732     0.13100
H3069       H  0.71702637  0.21928798  0.68473919     0.09700
H3070       H  0.69413203  0.19587702  0.72203576     0.11700
H3071       H  0.73207316  0.16507440  0.72619372     0.08400
H3072       H  0.75501886  0.18845833  0.68938345     0.11100
C3073       C  0.86183895  0.36752042  0.61885468    -0.03500
C3074       C  0.87580318  0.37298770  0.64177589    -0.06100
C3075       C  0.87842974  0.38919661  0.66074545    -0.21200
C3076       C  0.86705948  0.40017318  0.65740674     0.24500
C3077       C  0.85308019  0.39459157  0.63450601    -0.18700
C3078       C  0.85045213  0.37849776  0.61570322    -0.08700
C3079       C  0.87076284  0.41800384  0.67714500    -0.19000
C3080       C  0.85634782  0.42443656  0.68112704    -0.23800
C3081       C  0.85936359  0.44249781  0.69981232     0.26600
C3082       C  0.84112229  0.44312738  0.70819573    -0.20600
C3083       C  0.84281530  0.45974949  0.72529347    -0.10200
C3084       C  0.86288484  0.47649940  0.73425387    -0.10700
C3085       C  0.88129156  0.47627585  0.72533421    -0.03700
C3086       C  0.87957012  0.45941298  0.70836734    -0.18800
H3087       H  0.88498838  0.36505915  0.64475402     0.10300
H3088       H  0.88947648  0.39326035  0.67801455     0.10400
H3089       H  0.84455109  0.40302727  0.63036926     0.10000
H3090       H  0.83968514  0.37497722  0.59823560     0.11100
H3091       H  0.88548726  0.42555428  0.68914234     0.11200
H3092       H  0.84089227  0.41544605  0.67096479     0.13100
H3093       H  0.82536594  0.43053050  0.70167591     0.09700
H3094       H  0.82830640  0.45943891  0.73154756     0.11700
H3095       H  0.89700328  0.48893920  0.73185367     0.08400
H3096       H  0.89405328  0.45985372  0.70177019     0.11100
C3097       C  0.85958383  0.48184534  0.85683433    -0.03500
C3098       C  0.84156967  0.47238658  0.87446098    -0.06100
C3099       C  0.84006300  0.45872905  0.89622625    -0.21200
C3100       C  0.85659228  0.45441826  0.90108419     0.24500
C3101       C  0.87464248  0.46385970  0.88349536    -0.18700
C3102       C  0.87613932  0.47748187  0.86167277    -0.08700
C3103       C  0.85391918  0.43890694  0.92338627    -0.19000
C3104       C  0.87059685  0.43987539  0.93703206    -0.23800
C3105       C  0.86880385  0.42300292  0.95665729     0.26600
C3106       C  0.88725888  0.42194419  0.96193138    -0.20600
C3107       C  0.88621592  0.40515372  0.97777901    -0.10200
C3108       C  0.86666592  0.38905883  0.98900479    -0.10700
C3109       C  0.84838187  0.39080039  0.98524940    -0.03700
C3110       C  0.84941094  0.40761382  0.96922480    -0.18800
H3111       H  0.82851636  0.47539269  0.87133268     0.10300
H3112       H  0.82591902  0.45147561  0.90931133     0.10400
H3113       H  0.88734977  0.46026755  0.88596398     0.10000
H3114       H  0.89010149  0.48427221  0.84827916     0.11100
H3115       H  0.83772896  0.42622484  0.92806111     0.11200
H3116       H  0.88661017  0.45300604  0.93231587     0.13100
H3117       H  0.90245121  0.43371152  0.95285342     0.09700
H3118       H  0.90067993  0.40447159  0.98056699     0.11700
H3119       H  0.83312647  0.37876697  0.99386927     0.08400
H3120       H  0.83494035  0.40823952  0.96655414     0.11100
C3121       C  0.89304051  0.28448575  0.51279469    -0.03500
C3122       C  0.90519222  0.27748272  0.52735644    -0.06100
C3123       C  0.91235408  0.26492323  0.51366689    -0.21200
C3124       C  0.90877519  0.26056626  0.98350913     0.24500
C3125       C  0.89506993  0.26619424  0.97009311    -0.18700
C3126       C  0.88813216  0.27872878  0.98382759    -0.08700
C3127       C  0.91763871  0.24839171  0.96866541    -0.19000
C3128       C  0.91928011  0.24783052  0.94043216    -0.23800
C3129       C  0.92879481  0.23636445  0.92538762     0.26600
C3130       C  0.93652295  0.24255904  0.89788187    -0.20600
C3131       C  0.94706790  0.23330668  0.88394210    -0.10200
C3132       C  0.94997636  0.21759490  0.89728398    -0.10700
C3133       C  0.94093812  0.21036586  0.92396315    -0.03700
C3134       C  0.93040019  0.21950450  0.93778947    -0.18800
H3135       H  0.91005764  0.28261116  0.54872297     0.10300
H3136       H  0.92238685  0.26037647  0.52502209     0.10400
H3137       H  0.88969379  0.26110914  0.94889610     0.10000
H3138       H  0.87810968  0.28328262  0.97243619     0.11100
H3139       H  0.92407831  0.24065969  0.98166547     0.11200
H3140       H  0.91466789  0.25724098  0.92757649     0.13100
H3141       H  0.93523020  0.25529220  0.88759032     0.09700
H3142       H  0.95413533  0.23942280  0.86363083     0.11700
H3143       H  0.94289746  0.19819601  0.93473558     0.08400
H3144       H  0.92392681  0.21354531  0.95835251     0.11100
C3145       C  0.03414996  0.18521558  0.79815477    -0.03500
C3146       C  0.03144959  0.18785605  0.76961617    -0.06100
C3147       C  0.04689381  0.19012433  0.74989855    -0.21200
C3148       C  0.06561358  0.19034894  0.75832445     0.24500
C3149       C  0.06831984  0.18785392  0.78688678    -0.18700
C3150       C  0.05282479  0.18527294  0.80643729    -0.08700
C3151       C  0.08138573  0.19183556  0.73689226    -0.19000
C3152       C  0.10243998  0.20011439  0.74233996    -0.23800
C3153       C  0.11814417  0.20035839  0.72178193     0.26600
C3154       C  0.13994440  0.21606546  0.72437243    -0.20600
C3155       C  0.15524786  0.21621593  0.70616193    -0.10200
C3156       C  0.14920217  0.20027968  0.68537226    -0.10700
C3157       C  0.12740881  0.18439131  0.68304441    -0.03700
C3158       C  0.11207997  0.18449185  0.70087907    -0.18800
H3159       H  0.01726478  0.18783014  0.76247797     0.10300
H3160       H  0.04424960  0.19176660  0.72801496     0.10400
H3161       H  0.08215802  0.18730886  0.79421178     0.10000
H3162       H  0.05554768  0.18334601  0.82820381     0.11100
H3163       H  0.07549157  0.18633002  0.71591209     0.11200
H3164       H  0.10866733  0.20753797  0.76251617     0.13100
H3165       H  0.14513195  0.22832741  0.74045293     0.09700
H3166       H  0.17187231  0.22869155  0.70855747     0.11700
H3167       H  0.12213847  0.17195922  0.66718401     0.08400
H3168       H  0.09554614  0.17178912  0.69863569     0.11100
C3169       C  0.14947758  0.19521119  0.56348995    -0.03500
C3170       C  0.13495066  0.17496035  0.55185264    -0.06100
C3171       C  0.12123080  0.17326277  0.53040497    -0.21200
C3172       C  0.12183561  0.19172298  0.51979598     0.24500
C3173       C  0.13626823  0.21204794  0.53141956    -0.18700
C3174       C  0.14997374  0.21375329  0.55309590    -0.08700
C3175       C  0.10482084  0.19039537  0.99836301    -0.19000
C3176       C  0.10910477  0.20435874  0.47976511    -0.23800
C3177       C  0.09044828  0.20369047  0.96147798     0.26600
C3178       C  0.08810036  0.22142504  0.95506000    -0.20600
C3179       C  0.07115932  0.21877548  0.93835327    -0.10200
C3180       C  0.05634927  0.19831642  0.92750060    -0.10700
C3181       C  0.05957918  0.18088455  0.93237127    -0.03700
C3182       C  0.07649409  0.18354031  0.94909971    -0.18800
H3183       H  0.13402477  0.16030307  0.55943421     0.10300
H3184       H  0.11018750  0.15884487  0.01892651     0.10400
H3185       H  0.13668976  0.22656874  0.52439466     0.10000
H3186       H  0.16089636  0.22955354  0.56173802     0.11100
H3187       H  0.09084109  0.17440402  0.99605680     0.11200
H3188       H  0.12357015  0.22008983  0.48064835     0.13100
H3189       H  0.10241158  0.23558346  0.46066065     0.09700
H3190       H  0.06929402  0.23261475  0.93468420     0.11700
H3191       H  0.04865452  0.16499223  0.92396808     0.08400
H3192       H  0.07839251  0.16971414  0.95250949     0.11100
C3193       C  0.95975739  0.14948305  0.95193434    -0.03500
C3194       C  0.95159897  0.15845069  0.97100664    -0.06100
C3195       C  0.93424499  0.14503089  0.98837750    -0.21200
C3196       C  0.92479801  0.12240167  0.98729417     0.24500
C3197       C  0.93322616  0.11353573  0.96840907    -0.18700
C3198       C  0.95047773  0.12687780  0.95115966    -0.08700
C3199       C  0.90580913  0.10854188  0.00531050    -0.19000
C3200       C  0.89852396  0.08811127  0.51071869    -0.23800
C3201       C  0.87985093  0.07376683  0.52889205     0.26600
C3202       C  0.87789594  0.05422897  0.53785331    -0.20600
C3203       C  0.86113877  0.04017855  0.55528536    -0.10200
C3204       C  0.84555669  0.04505286  0.56412096    -0.10700
C3205       C  0.84690612  0.06421046  0.55435425    -0.03700
C3206       C  0.86393244  0.07849188  0.53697288    -0.18800
H3207       H  0.95811381  0.17575932  0.97181138     0.10300
H3208       H  0.92802162  0.15234923  0.00249839     0.10400
H3209       H  0.92619413  0.09627279  0.96601415     0.10000
H3210       H  0.95619120  0.11935646  0.93657081     0.11100
H3211       H  0.89859239  0.11727936  0.51645181     0.11200
H3212       H  0.90716201  0.08077405  0.50203502     0.13100
H3213       H  0.88966273  0.04993648  0.53174202     0.09700
H3214       H  0.86055337  0.02550894  0.56214775     0.11700
H3215       H  0.83515365  0.06843418  0.56075167     0.08400
H3216       H  0.86450236  0.09309089  0.52993862     0.11100
C3217       C  0.84076986  0.04396132  0.68904812    -0.03500
C3218       C  0.84177621  0.06365099  0.69484994    -0.06100
C3219       C  0.85409149  0.07658604  0.71708762    -0.21200
C3220       C  0.86558837  0.07013699  0.73417075     0.24500
C3221       C  0.86444549  0.05031442  0.72855505    -0.18700
C3222       C  0.85213302  0.03737586  0.70627829    -0.08700
C3223       C  0.87960806  0.08534236  0.75618247    -0.19000
C3224       C  0.88852049  0.08011575  0.77721390    -0.23800
C3225       C  0.90445843  0.09669055  0.79647066     0.26600
C3226       C  0.92066944  0.09370318  0.80761387    -0.20600
C3227       C  0.93752890  0.11027021  0.82273044    -0.10200
C3228       C  0.93837837  0.13008179  0.82708628    -0.10700
C3229       C  0.92127323  0.13238325  0.81775040    -0.03700
C3230       C  0.90443950  0.11583578  0.80276361    -0.18800
H3231       H  0.83318539  0.06919592  0.68207699     0.10300
H3232       H  0.85477779  0.09181446  0.72081415     0.10400
H3233       H  0.87340341  0.04489120  0.74066338     0.10000
H3234       H  0.85170941  0.02229060  0.70240718     0.11100
H3235       H  0.88331985  0.10192261  0.75414235     0.11200
H3236       H  0.88541792  0.06376369  0.77931692     0.13100
H3237       H  0.92083090  0.07894995  0.80348472     0.09700
H3238       H  0.95033083  0.10787385  0.82997539     0.11700
H3239       H  0.92115765  0.14721965  0.82134070     0.08400
H3240       H  0.89165342  0.11830414  0.79573322     0.11100
C3241       C  0.93885948  0.37908645  0.56194449    -0.03500
C3242       C  0.95818200  0.38381470  0.54921416    -0.06100
C3243       C  0.97765343  0.39698670  0.56310453    -0.21200
C3244       C  0.97803209  0.40552463  0.58983203     0.24500
C3245       C  0.95874578  0.40226955  0.60118082    -0.18700
C3246       C  0.93943839  0.38906812  0.58751182    -0.08700
C3247       C  0.99850341  0.41695011  0.60578385    -0.19000
C3248       C  0.99940815  0.41827440  0.63408143    -0.23800
C3249       C  0.01963359  0.42742142  0.65048577     0.26600
C3250       C  0.01894634  0.42097467  0.67849561    -0.20600
C3251       C  0.03787169  0.42727383  0.69349301    -0.10200
C3252       C  0.05773693  0.44020042  0.68061807    -0.10700
C3253       C  0.05833509  0.44810121  0.65350722    -0.03700
C3254       C  0.03957386  0.44189020  0.63864787    -0.18800
H3255       H  0.95813466  0.37624569  0.52958805     0.10300
H3256       H  0.99235290  0.39958972  0.55359948     0.10400
H3257       H  0.95834700  0.40938530  0.62094441     0.10000
H3258       H  0.92471018  0.38588058  0.59757580     0.11100
H3259       H  0.01314372  0.42269345  0.59385983     0.11200
H3260       H  0.98466220  0.41067555  0.64604299     0.13100
H3261       H  0.00374131  0.41014566  0.68833552     0.09700
H3262       H  0.03697806  0.42094067  0.71428341     0.11700
H3263       H  0.07351739  0.45842387  0.64324114     0.08400
H3264       H  0.04086773  0.44809574  0.61771556     0.11100
C3265       C  0.10007773  0.38993512  0.73515378    -0.03500
C3266       C  0.08973646  0.37066603  0.71971691    -0.06100
C3267       C  0.08321879  0.35078250  0.73287899    -0.21200
C3268       C  0.08700666  0.34978903  0.76161046     0.24500
C3269       C  0.09867129  0.36930193  0.77642773    -0.18700
C3270       C  0.10492589  0.38900791  0.76343057    -0.08700
C3271       C  0.07802585  0.32820106  0.77535770    -0.19000
C3272       C  0.07605937  0.32505906  0.80341339    -0.23800
C3273       C  0.06476983  0.30341720  0.81729098     0.26600
C3274       C  0.05981824  0.30222497  0.84600630    -0.20600
C3275       C  0.04744409  0.28219946  0.85933136    -0.10200
C3276       C  0.03970778  0.26294963  0.84409431    -0.10700
C3277       C  0.04575424  0.26414204  0.81586033    -0.03700
C3278       C  0.05819055  0.28402427  0.80266745    -0.18800
H3279       H  0.08592350  0.37088373  0.69788455     0.10300
H3280       H  0.07458240  0.33605679  0.72074697     0.10400
H3281       H  0.10293295  0.36964438  0.79812949     0.10000
H3282       H  0.11340231  0.40365389  0.77576864     0.11100
H3283       H  0.07144158  0.31437772  0.76143016     0.11200
H3284       H  0.08156639  0.33887185  0.81721682     0.13100
H3285       H  0.06492549  0.31687389  0.85799823     0.09700
H3286       H  0.04312495  0.28180603  0.88108653     0.11700
H3287       H  0.04042602  0.24955192  0.80363180     0.08400
H3288       H  0.06220486  0.28387709  0.78095671     0.11100
C3289       C  0.17105203  0.46602224  0.78121300    -0.03500
C3290       C  0.16415426  0.46059554  0.80903515    -0.06100
C3291       C  0.17693196  0.45784355  0.82871916    -0.21200
C3292       C  0.19665652  0.46004016  0.82091972     0.24500
C3293       C  0.20347239  0.46538042  0.79306250    -0.18700
C3294       C  0.19086162  0.46831611  0.77353655    -0.08700
C3295       C  0.21035810  0.45802697  0.84254814    -0.19000
C3296       C  0.22529656  0.45263911  0.83652719    -0.23800
C3297       C  0.24020917  0.45223163  0.85763634     0.26600
C3298       C  0.24958138  0.43951782  0.85252155    -0.20600
C3299       C  0.26448146  0.43957338  0.87124552    -0.10200
C3300       C  0.27074620  0.45280600  0.89512031    -0.10700
C3301       C  0.26147039  0.46561821  0.90015548    -0.03700
C3302       C  0.24632855  0.46527784  0.88174252    -0.18800
H3303       H  0.14901833  0.45872457  0.81567752     0.10300
H3304       H  0.17139377  0.45396913  0.85009386     0.10400
H3305       H  0.21882046  0.46788511  0.78632725     0.10000
H3306       H  0.19672941  0.47243988  0.75231647     0.11100
H3307       H  0.20771173  0.46070181  0.86412566     0.11200
H3308       H  0.22648545  0.44789904  0.81537150     0.13100
H3309       H  0.24537971  0.42953780  0.83395598     0.09700
H3310       H  0.27145806  0.42964087  0.86672931     0.11700
H3311       H  0.26592522  0.47593526  0.91842826     0.08400
H3312       H  0.23995675  0.47575136  0.88608831     0.11100
C3313       C  0.18152011  0.45642507  0.65113528    -0.03500
C3314       C  0.17544843  0.43682195  0.63732742    -0.06100
C3315       C  0.19002661  0.43464722  0.62063005    -0.21200
C3316       C  0.21088940  0.45201206  0.61717909     0.24500
C3317       C  0.21733708  0.47130507  0.63204476    -0.18700
C3318       C  0.20274303  0.47349357  0.64880374    -0.08700
C3319       C  0.22522035  0.44949762  0.59742584    -0.19000
C3320       C  0.24070752  0.46617811  0.58304483    -0.23800
C3321       C  0.25391462  0.46375559  0.56126518     0.26600
C3322       C  0.27353753  0.48190516  0.55411521    -0.20600
C3323       C  0.28615908  0.48068674  0.53297570    -0.10200
C3324       C  0.27931263  0.46126393  0.51827731    -0.10700
C3325       C  0.25961393  0.44306842  0.52534763    -0.03700
C3326       C  0.24698564  0.44428913  0.54655270    -0.18800
H3327       H  0.15925191  0.42331495  0.63876323     0.10300
H3328       H  0.18476294  0.41955762  0.60959342     0.10400
H3329       H  0.23355050  0.48474294  0.63071314     0.10000
H3330       H  0.20798523  0.48869750  0.65950036     0.11100
H3331       H  0.22196503  0.43318715  0.59352914     0.11200
H3332       H  0.24378291  0.48243705  0.58696821     0.13100
H3333       H  0.27912815  0.49714506  0.56492254     0.09700
H3334       H  0.30120164  0.49505381  0.52799885     0.11700
H3335       H  0.25527794  0.42489726  0.01491373     0.08400
H3336       H  0.23162843  0.43012926  0.55069934     0.11100
C3337       C  0.12183978  0.60789142  0.51978012    -0.03500
C3338       C  0.14069220  0.61437779  0.53490838    -0.06100
C3339       C  0.14225786  0.60018176  0.55327541    -0.21200
C3340       C  0.12520148  0.57895084  0.55666662     0.24500
C3341       C  0.10600194  0.57251297  0.54211727    -0.18700
C3342       C  0.10431889  0.58695070  0.52392139    -0.08700
C3343       C  0.12840484  0.56459174  0.57602316    -0.19000
C3344       C  0.11692568  0.54276213  0.57593351    -0.23800
C3345       C  0.12177374  0.52938744  0.59519716     0.26600
C3346       C  0.11505565  0.50777794  0.58831744    -0.20600
C3347       C  0.11966578  0.49502586  0.60600706    -0.10200
C3348       C  0.13113483  0.50366486  0.63096940    -0.10700
C3349       C  0.13754500  0.52518549  0.63790881    -0.03700
C3350       C  0.13277089  0.53774427  0.62052430    -0.18800
H3351       H  0.15560252  0.63275186  0.03484255     0.10300
H3352       H  0.15712496  0.60570969  0.56443214     0.10400
H3353       H  0.09232173  0.55645514  0.54469828     0.10000
H3354       H  0.08963065  0.58151755  0.51236918     0.11100
H3355       H  0.14204777  0.57268342  0.58985509     0.11200
H3356       H  0.10444835  0.53440955  0.56048482     0.13100
H3357       H  0.10629768  0.50077759  0.56916946     0.09700
H3358       H  0.11413274  0.47840572  0.60023744     0.11700
H3359       H  0.14592285  0.53233285  0.65724379     0.08400
H3360       H  0.13741299  0.55387731  0.62751947     0.11100
C3361       C  0.13244376  0.52216669  0.75741910    -0.03500
C3362       C  0.15164615  0.54187395  0.76117457    -0.06100
C3363       C  0.15214262  0.55811368  0.77791108    -0.21200
C3364       C  0.13353702  0.55481304  0.79134627     0.24500
C3365       C  0.11406713  0.53576650  0.78597609    -0.18700
C3366       C  0.11354143  0.51957992  0.76925303    -0.08700
C3367       C  0.13499316  0.57100183  0.81176721    -0.19000
C3368       C  0.12276824  0.56509299  0.83493045    -0.23800
C3369       C  0.12408037  0.58032628  0.85683055     0.26600
C3370       C  0.10669455  0.57352834  0.87509232    -0.20600
C3371       C  0.10709909  0.58718383  0.89617486    -0.10200
C3372       C  0.12505587  0.60789225  0.89963120    -0.10700
C3373       C  0.14268270  0.61456211  0.88172476    -0.03700
C3374       C  0.14223517  0.60092149  0.86053933    -0.18800
H3375       H  0.16644977  0.54444337  0.75208588     0.10300
H3376       H  0.16724185  0.57283474  0.78143372     0.10400
H3377       H  0.09926132  0.53315473  0.79508492     0.10000
H3378       H  0.09841908  0.50477286  0.76633011     0.11100
H3379       H  0.14707727  0.58774358  0.80825748     0.11200
H3380       H  0.11108554  0.54814210  0.83818284     0.13100
H3381       H  0.09263984  0.55763844  0.87288026     0.09700
H3382       H  0.09332482  0.58149016  0.90976260     0.11700
H3383       H  0.15681458  0.63038338  0.88396948     0.08400
H3384       H  0.15626187  0.60651717  0.84753882     0.11100
loop_ 
_geom_bond_atom_site_label_1 
_geom_bond_atom_site_label_2 
_geom_bond_distance 
_geom_bond_site_symmetry_2 
_ccdc_geom_bond_type 
Fe1          O17   2.043       .  S
Fe1           O7   2.078       .  S
Fe1          O14   2.068       .  S
Fe1           O6   2.050       .  S
Fe1          O12   1.963       .  S
Fe2           O5   2.025       .  S
Fe2           O9   2.118       .  S
Fe2          O13   2.047       .  S
Fe2          O18   2.115       .  S
Fe2          O12   1.964       .  S
Fe3          O21   2.106       .  S
Fe3           O8   2.029       .  S
Fe3          O15   2.042       .  S
Fe3           O4   2.114       .  S
Fe3          O12   1.961       .  S
O4           C11   1.282       .  A
O5           C19   1.260       .  A
O6           C11   1.272       .  A
O7           C10   1.267       .  A
O8           C20   1.264       .  A
O9           C22   1.284       .  A
C10          O15   1.261       .  A
C10        C1669   1.480       .  S
C11        C1597   1.491       .  S
O13          C16   1.261       .  A
O14          C16   1.265       .  A
C16        C1621   1.480       .  S
O17          C22   1.273       .  A
O18          C20   1.279       .  A
C19          O21   1.274       .  A
C19        C1560   1.476       .  S
C20        C1573   1.484       .  S
C22        C1656   1.493       .  S
Fe23         O39   2.046       .  S
Fe23         O29   2.076       .  S
Fe23         O36   2.070   1_655  S
Fe23         O28   2.048   1_655  S
Fe23         O34   1.963       .  S
Fe24         O27   2.023   1_455  S
Fe24         O31   2.121   1_455  S
Fe24         O35   2.043       .  S
Fe24         O40   2.116       .  S
Fe24         O34   1.957   1_455  S
Fe25         O43   2.118       .  S
Fe25         O30   2.030   1_655  S
Fe25         O37   2.048       .  S
Fe25         O26   2.122   1_655  S
Fe25         O34   1.957       .  S
O26          C33   1.284       .  A
O27          C41   1.261       .  A
O28          C33   1.271       .  A
O29          C32   1.268       .  A
O30          C42   1.264       .  A
O31          C44   1.284       .  A
C32          O37   1.263       .  A
C32        C1536   1.481       .  S
C33        C1453   1.494       .  S
O35          C38   1.261       .  A
O36          C38   1.266       .  A
C38        C1488   1.477       .  S
O39          C44   1.272       .  A
O40          C42   1.279       .  A
C41          O43   1.278       .  A
C41        C1440   1.484       .  S
C42        C1584   1.485       .  S
C44        C1501   1.493       .  S
Fe45         O61   2.045       .  S
Fe45         O51   2.077       .  S
Fe45         O58   2.074       .  S
Fe45         O50   2.049       .  S
Fe45         O56   1.972       .  S
Fe46         O49   2.027       .  S
Fe46         O53   2.113       .  S
Fe46         O57   2.045       .  S
Fe46         O62   2.117       .  S
Fe46         O56   1.971       .  S
Fe47         O65   2.107       .  S
Fe47         O52   2.028       .  S
Fe47       O1751   2.043   1_554  S
Fe47       O1740   2.110   1_554  S
Fe47         O56   1.967       .  S
O48       Fe1739   2.109       .  S
O48          C55   1.280       .  A
O49          C63   1.261       .  A
O50        C1747   1.271   1_554  A
O51        C1746   1.267       .  A
O52          C64   1.263       .  A
O53          C66   1.281       .  A
C54          O59   1.262       .  A
C54        O1743   1.267       .  A
C54        C1416   1.478       .  S
C55        O1742   1.271       .  A
C55        C1344   1.491       .  S
O57          C60   1.263       .  A
O58          C60   1.268       .  A
O59       Fe1739   2.040       .  S
C60        C1357   1.481       .  S
O61          C66   1.271       .  A
O62          C64   1.278       .  A
C63          O65   1.275       .  A
C63        C1549   1.476       .  S
C64        C1429   1.487       .  S
C66        C1381   1.493       .  S
Fe67         O83   2.041       .  S
Fe67         O73   2.081       .  S
Fe67         O80   2.083       .  S
Fe67         O72   2.046       .  S
Fe67         O78   1.946       .  S
Fe68         O71   2.054       .  S
Fe68         O75   2.097       .  S
Fe68         O79   2.078       .  S
Fe68         O84   2.104       .  S
Fe68         O78   1.951       .  S
Fe69         O87   2.098       .  S
Fe69         O74   2.047       .  S
Fe69         O81   2.070       .  S
Fe69         O70   2.088       .  S
Fe69         O78   1.952       .  S
O70          C77   1.276       .  A
O71          C85   1.268       .  A
O72          C77   1.269       .  A
O73          C76   1.272       .  A
O74          C86   1.268       .  A
O75          C88   1.277       .  A
C76          O81   1.271       .  A
C76        C1392   1.489       .  S
C77        C1405   1.480       .  S
O79          C82   1.272       .  A
O80          C82   1.272       .  A
C82        C1285   1.488       .  S
O83          C88   1.268       .  A
O84          C86   1.276       .  A
C85          O87   1.276       .  A
C85        C1237   1.476       .  S
C86        C1309   1.488       .  S
C88        C1261   1.482       .  S
Fe89        O105   2.056       .  S
Fe89         O95   2.067       .  S
Fe89        O102   2.070       .  S
Fe89         O94   2.057       .  S
Fe89        O100   1.952       .  S
Fe90         O93   2.045       .  S
Fe90         O97   2.083       .  S
Fe90        O101   2.072       .  S
Fe90        O106   2.098       .  S
Fe90        O100   1.962       .  S
Fe91        O109   2.093       .  S
Fe91         O96   2.048       .  S
Fe91        O103   2.072       .  S
Fe91         O92   2.076       .  S
Fe91        O100   1.961       .  S
O92          C99   1.273       .  A
O93         C107   1.268       .  A
O94          C99   1.270       .  A
O95        C1790   1.270       .  A
O96         C108   1.267       .  A
O97         C110   1.273       .  A
C98        O1787   1.269   1_554  A
C98        O1795   1.269   1_554  A
C98        C1645   1.481       .  S
C99        C1680   1.481       .  S
O101        C104   1.272       .  A
O102        C104   1.271       .  A
O103       C1790   1.270       .  A
C104       C1224   1.483       .  S
O105        C110   1.269       .  A
O106        C108   1.274       .  A
C107        O109   1.274       .  A
C107       C2868   1.473       .  S
C108       C1320   1.479       .  S
C110       C2881   1.483       .  S
Fe111       O127   2.050   1_655  S
Fe111       O117   2.092       .  S
Fe111       O124   2.090   1_655  S
Fe111       O116   2.050       .  S
Fe111       O122   1.948       .  S
Fe112       O115   2.048       .  S
Fe112       O119   2.087       .  S
Fe112       O123   2.072       .  S
Fe112       O128   2.098       .  S
Fe112       O122   1.949   1_455  S
Fe113       O131   2.089       .  S
Fe113       O118   2.055       .  S
Fe113       O125   2.077       .  S
Fe113       O114   2.081       .  S
Fe113       O122   1.951       .  S
O114        C121   1.274       .  A
O115        C129   1.268   1_455  A
O116        C121   1.270       .  A
O117        C120   1.274       .  A
O118        C130   1.268       .  A
O119        C132   1.276       .  A
C120        O125   1.272       .  A
C120       C1093   1.496       .  S
C121       C1080   1.478       .  S
O123        C126   1.271       .  A
O124        C126   1.273       .  A
C126       C1141   1.494       .  S
O127        C132   1.271       .  A
O128        C130   1.275   1_455  A
C129        O131   1.274       .  A
C129       C1165   1.482   1_655  S
C130       C1248   1.475       .  S
C132       C1117   1.480       .  S
Fe133       O149   2.038       .  S
Fe133       O139   2.068       .  S
Fe133       O146   2.073       .  S
Fe133       O138   2.038       .  S
Fe133       O144   1.961       .  S
Fe134       O137   2.027       .  S
Fe134       O141   2.120       .  S
Fe134       O145   2.043       .  S
Fe134       O150   2.116       .  S
Fe134       O144   1.960       .  S
Fe135       O153   2.105       .  S
Fe135       O140   2.025       .  S
Fe135       O147   2.047       .  S
Fe135       O136   2.108       .  S
Fe135       O144   1.962       .  S
O136        C143   1.281       .  A
O137        C151   1.262       .  A
O138        C143   1.270       .  A
O139        C142   1.266       .  A
O140        C152   1.263       .  A
O141        C154   1.283       .  A
C142        O147   1.263       .  A
C142       C1008   1.478       .  S
C143       C1213   1.486       .  S
O145        C148   1.262       .  A
O146        C148   1.266       .  A
C148       C1200   1.480       .  S
O149        C154   1.270       .  A
O150        C152   1.279       .  A
C151        O153   1.275       .  A
C151       C1045   1.477       .  S
C152       C1021   1.482       .  S
C154        C973   1.488       .  S
Fe155       O171   2.045       .  S
Fe155       O161   2.067       .  S
Fe155       O168   2.075   1_565  S
Fe155       O160   2.045   1_565  S
Fe155       O166   1.954       .  S
Fe156       O159   2.029   1_545  S
Fe156       O163   2.126   1_545  S
Fe156       O167   2.051       .  S
Fe156       O172   2.116       .  S
Fe156       O166   1.957   1_545  S
Fe157       O175   2.119       .  S
Fe157       O162   2.025   1_565  S
Fe157       O169   2.051       .  S
Fe157       O158   2.129   1_565  S
Fe157       O166   1.955       .  S
O158        C165   1.287       .  A
O159        C173   1.264       .  A
O160        C165   1.273       .  A
O161        C164   1.265       .  A
O162        C174   1.262       .  A
O163        C176   1.284       .  A
C164        O169   1.262       .  A
C164       C1128   1.479       .  S
C165        C936   1.496       .  S
O167        C170   1.263       .  A
O168        C170   1.267       .  A
C170        C949   1.481       .  S
O171        C176   1.271       .  A
O172        C174   1.278       .  A
C173        O175   1.280       .  A
C173       C1032   1.486       .  S
C174        C901   1.479       .  S
C176       C1152   1.488       .  S
Fe177       O193   2.042       .  S
Fe177       O183   2.062       .  S
Fe177       O190   2.066       .  S
Fe177       O182   2.048       .  S
Fe177       O188   1.973       .  S
Fe178       O181   2.029       .  S
Fe178       O185   2.117       .  S
Fe178       O189   2.049       .  S
Fe178       O194   2.119       .  S
Fe178       O188   1.973       .  S
Fe179       O197   2.104       .  S
Fe179       O184   2.022       .  S
Fe179      O1883   2.040   1_554  S
Fe179      O1872   2.110   1_554  S
Fe179       O188   1.971       .  S
O180      Fe1871   2.110       .  S
O180        C187   1.282       .  A
O181        C195   1.263       .  A
O182       C1879   1.272   1_554  A
O183       C1878   1.265   1_554  A
O184        C196   1.260       .  A
O185        C198   1.282       .  A
C186        O191   1.259       .  A
C186       O1875   1.265       .  A
C186        C829   1.476       .  S
C187       O1874   1.271       .  A
C187        C864   1.483       .  S
O189        C192   1.264       .  A
O190        C192   1.265       .  A
O191      Fe1871   2.035       .  S
C192        C888   1.479       .  S
O193        C198   1.270       .  A
O194        C196   1.278       .  A
C195        O197   1.276       .  A
C195       C1056   1.480       .  S
C196        C912   1.485       .  S
C198        C805   1.494       .  S
Fe199       O215   2.049   1_565  S
Fe199       O205   2.067       .  S
Fe199       O212   2.065   1_565  S
Fe199       O204   2.054       .  S
Fe199       O210   1.947       .  S
Fe200       O203   2.051       .  S
Fe200       O207   2.091       .  S
Fe200       O211   2.081       .  S
Fe200       O216   2.099       .  S
Fe200       O210   1.956   1_545  S
Fe201       O219   2.099       .  S
Fe201       O206   2.045       .  S
Fe201       O213   2.071       .  S
Fe201       O202   2.089       .  S
Fe201       O210   1.953       .  S
O202        C209   1.276       .  A
O203        C217   1.268   1_545  A
O204        C209   1.270       .  A
O205        C208   1.269       .  A
O206        C218   1.268       .  A
O207        C220   1.277       .  A
C208        O213   1.270       .  A
C208        C733   1.484       .  S
C209        C720   1.482       .  S
O211        C214   1.271       .  A
O212        C214   1.268       .  A
C214       C1512   1.488       .  S
O215        C220   1.270       .  A
O216        C218   1.276   1_545  A
C217        O219   1.275       .  A
C217        C757   1.487   1_565  S
C218        C781   1.476       .  S
C220       C1525   1.482       .  S
Fe221       O237   2.041       .  S
Fe221       O227   2.081       .  S
Fe221       O234   2.084       .  S
Fe221       O226   2.049       .  S
Fe221       O232   1.947       .  S
Fe222       O225   2.046       .  S
Fe222       O229   2.101       .  S
Fe222       O233   2.075       .  S
Fe222       O238   2.104       .  S
Fe222       O232   1.949       .  S
Fe223       O241   2.089       .  S
Fe223       O228   2.050       .  S
Fe223       O235   2.075       .  S
Fe223       O224   2.086       .  S
Fe223       O232   1.950       .  S
O224        C231   1.277       .  A
O225        C239   1.268       .  A
O226        C231   1.272       .  A
O227       C1922   1.271       .  A
O228        C240   1.270       .  A
O229        C242   1.280       .  A
C230       O1919   1.269       .  A
C230       O1927   1.268       .  A
C230        C984   1.489   1_556  S
C231        C997   1.478       .  S
O233        C236   1.269       .  A
O234        C236   1.270       .  A
O235       C1922   1.270       .  A
C236        C685   1.490       .  S
O237        C242   1.271       .  A
O238        C240   1.278       .  A
C239        O241   1.274       .  A
C239       C2484   1.484       .  S
C240        C648   1.488       .  S
C242       C2364   1.482       .  S
Fe243       O259   2.039       .  S
Fe243       O249   2.073       .  S
Fe243       O256   2.067       .  S
Fe243       O248   2.041       .  S
Fe243       O254   1.953       .  S
Fe244       O247   2.047       .  S
Fe244       O251   2.086       .  S
Fe244       O255   2.082       .  S
Fe244       O260   2.100       .  S
Fe244       O254   1.964       .  S
Fe245       O263   2.102       .  S
Fe245       O250   2.048       .  S
Fe245       O257   2.079       .  S
Fe245       O246   2.092       .  S
Fe245       O254   1.962       .  S
O246        C253   1.276       .  A
O247        C261   1.267       .  A
O248        C253   1.268       .  A
O249        C252   1.270       .  A
O250        C262   1.268       .  A
O251        C264   1.275       .  A
C252        O257   1.271       .  A
C252       C1333   1.492       .  S
C253       C1368   1.480       .  S
O255        C258   1.271       .  A
O256        C258   1.269       .  A
C258        C816   1.490       .  S
O259        C264   1.268       .  A
O260        C262   1.276       .  A
C261        O263   1.276       .  A
C261        C637   1.479       .  S
C262        C768   1.479       .  S
C264        C840   1.473       .  S
Fe265       O281   2.054       .  S
Fe265       O271   2.080       .  S
Fe265       O278   2.078       .  S
Fe265       O270   2.060       .  S
Fe265       O276   1.943       .  S
Fe266       O269   2.060       .  S
Fe266       O273   2.089       .  S
Fe266       O277   2.080       .  S
Fe266       O282   2.105       .  S
Fe266       O276   1.946       .  S
Fe267       O285   2.092       .  S
Fe267       O272   2.045       .  S
Fe267       O279   2.071       .  S
Fe267       O268   2.076       .  S
Fe267       O276   1.943       .  S
O268        C275   1.273       .  A
O269        C283   1.268       .  A
O270        C275   1.271       .  A
O271        C274   1.273       .  A
O272        C284   1.268       .  A
O273        C286   1.277       .  A
C274        O279   1.272       .  A
C274        C853   1.488       .  S
C275        C877   1.479       .  S
O277        C280   1.272       .  A
O278        C280   1.271       .  A
C280        C576   1.490       .  S
O281        C286   1.271       .  A
O282        C284   1.277       .  A
C283        O285   1.274       .  A
C283        C613   1.478       .  S
C284        C589   1.478       .  S
C286        C552   1.482       .  S
Fe287       O303   2.052       .  S
Fe287       O293   2.082       .  S
Fe287       O300   2.079       .  S
Fe287       O292   2.041       .  S
Fe287       O298   1.951       .  S
Fe288       O291   2.046       .  S
Fe288       O295   2.090       .  S
Fe288       O299   2.081       .  S
Fe288       O304   2.102       .  S
Fe288       O298   1.957       .  S
Fe289       O307   2.098       .  S
Fe289       O294   2.047       .  S
Fe289       O301   2.075       .  S
Fe289       O290   2.095       .  S
Fe289       O298   1.955       .  S
O290        C297   1.278       .  A
O291        C305   1.268       .  A
O292        C297   1.270       .  A
O293        C296   1.269       .  A
O294        C306   1.268       .  A
O295        C308   1.277       .  A
C296        O301   1.269       .  A
C296       C1464   1.491       .  S
C297       C1477   1.480       .  S
O299        C302   1.271       .  A
O300        C302   1.271       .  A
C302        C925   1.494       .  S
O303        C308   1.272       .  A
O304        C306   1.277       .  A
C305        O307   1.276       .  A
C305        C600   1.484       .  S
C306        C528   1.491       .  S
C308        C960   1.482       .  S
Fe309       O325   2.042       .  S
Fe309       O315   2.092       .  S
Fe309       O322   2.080       .  S
Fe309       O314   2.041       .  S
Fe309       O320   1.943       .  S
Fe310       O313   2.060       .  S
Fe310       O317   2.097       .  S
Fe310       O321   2.088       .  S
Fe310       O326   2.114       .  S
Fe310       O320   1.954       .  S
Fe311       O329   2.095       .  S
Fe311       O316   2.049       .  S
Fe311       O323   2.074       .  S
Fe311       O312   2.091       .  S
Fe311       O320   1.947       .  S
O312        C319   1.274       .  A
O313        C327   1.268       .  A
O314        C319   1.266       .  A
O315        C318   1.275       .  A
O316        C328   1.269       .  A
O317        C330   1.277       .  A
C318        O323   1.273       .  A
C318       C1608   1.489       .  S
C319       C3324   1.479       .  S
O321       C2016   1.275       .  A
O322       C2016   1.273       .  A
C324       O2013   1.273       .  A
C324       O2014   1.271       .  A
C324        C504   1.492   1_556  S
O325        C330   1.268       .  A
O326        C328   1.279       .  A
C327        O329   1.274       .  A
C327        C624   1.482       .  S
C328       C2209   1.481       .  S
C330        C480   1.481       .  S
Fe331       O347   2.044       .  S
Fe331       O337   2.072       .  S
Fe331       O344   2.078       .  S
Fe331       O336   2.045       .  S
Fe331       O342   1.966       .  S
Fe332       O335   2.031       .  S
Fe332       O339   2.124       .  S
Fe332       O343   2.042       .  S
Fe332       O348   2.114       .  S
Fe332       O342   1.966       .  S
Fe333       O351   2.114       .  S
Fe333       O338   2.025       .  S
Fe333       O345   2.043       .  S
Fe333       O334   2.118       .  S
Fe333       O342   1.968       .  S
O334        C341   1.283       .  A
O335        C349   1.264       .  A
O336        C341   1.272       .  A
O337        C340   1.267       .  A
O338        C350   1.260       .  A
O339        C352   1.284       .  A
C340        O345   1.261       .  A
C340        C661   1.481       .  S
C341        C493   1.494       .  S
O343        C346   1.261       .  A
O344        C346   1.267       .  A
C346        C469   1.479       .  S
O347        C352   1.271       .  A
O348        C350   1.276       .  A
C349        O351   1.278       .  A
C349        C421   1.481       .  S
C350        C445   1.478       .  S
C352        C696   1.494       .  S
Fe353       O369   2.052       .  S
Fe353       O359   2.071       .  S
Fe353       O366   2.078       .  S
Fe353       O358   2.046       .  S
Fe353       O364   1.969       .  S
Fe354       O357   2.029       .  S
Fe354       O370   2.106       .  S
Fe354      O2053   2.125   1_554  S
Fe354      O2057   2.043       .  S
Fe354       O364   1.964       .  S
Fe355       O373   2.113       .  S
Fe355       O360   2.033       .  S
Fe355       O367   2.048       .  S
Fe355       O356   2.117       .  S
Fe355       O364   1.971       .  S
O356        C363   1.283       .  A
O357        C371   1.264       .  A
O358        C363   1.273       .  A
O359        C362   1.265       .  A
O360        C372   1.261       .  A
O361      Fe2046   2.121       .  S
O361        C374   1.285       .  A
C362        O367   1.261       .  A
C362       C1272   1.484       .  S
C363        C565   1.488       .  S
O365      Fe2046   2.042       .  S
O365        C368   1.260       .  A
O366       C2060   1.266       .  A
C368       O2058   1.265       .  A
C368        C541   1.480       .  S
O369       C2066   1.273   1_554  A
O370        C372   1.274       .  A
C371        O373   1.279       .  A
C371        C397   1.488       .  S
C372        C456   1.477       .  S
C374       O2061   1.274       .  A
C374       C1296   1.493       .  S
Fe375       O391   2.043       .  S
Fe375       O381   2.064       .  S
Fe375       O388   2.060       .  S
Fe375       O380   2.044       .  S
Fe375       O386   1.976       .  S
Fe376       O379   2.033       .  S
Fe376       O383   2.109       .  S
Fe376       O387   2.055       .  S
Fe376       O392   2.113       .  S
Fe376       O386   1.976       .  S
Fe377       O395   2.100       .  S
Fe377       O382   2.029       .  S
Fe377       O389   2.046       .  S
Fe377       O378   2.100       .  S
Fe377       O386   1.972       .  S
O378        C385   1.279       .  A
O379        C393   1.263       .  A
O380        C385   1.270       .  A
O381        C384   1.265       .  A
O382        C394   1.262       .  A
O383        C396   1.280       .  A
C384        O389   1.262       .  A
C384       C1069   1.477       .  S
C385        C744   1.477       .  S
O387        C390   1.265       .  A
O388        C390   1.265       .  A
C390        C709   1.480       .  S
O391        C396   1.270       .  A
O392        C394   1.277       .  A
C393        O395   1.274       .  A
C393        C408   1.477       .  S
C394        C432   1.482       .  S
C396       C1104   1.485       .  S
C397        C398   1.404       .  A
C397        C402   1.409   1_554  A
C398       C2091   1.409       .  A
C398        H411   1.083       .  S
C399        C400   1.410       .  A
C399       C2090   1.407       .  A
C399        H412   1.083       .  S
C400        C401   1.403       .  A
C400        C403   1.492       .  S
C401       C2094   1.393       .  A
C401        H413   1.081       .  S
C402       C2093   1.392       .  A
C402        H414   1.083       .  S
C403        C404   1.356       .  D
C403        H415   1.081       .  S
C404        C405   1.496       .  S
C404        H416   1.084       .  S
C405        C406   1.412       .  A
C405        C410   1.406       .  A
C406        C407   1.405       .  A
C406        H417   1.083       .  S
C407        C408   1.401       .  A
C407        H418   1.083       .  S
C408        C409   1.405       .  A
C409        C410   1.394       .  A
C409        H419   1.083       .  S
C410        H420   1.079       .  S
C421        C422   1.406       .  A
C421        C426   1.404       .  A
C422        C423   1.394       .  A
C422        H435   1.084       .  S
C423        C424   1.400       .  A
C423        H436   1.084       .  S
C424        C425   1.415       .  A
C424        C427   1.494       .  S
C425        C426   1.410       .  A
C425        H437   1.081       .  S
C426        H438   1.083       .  S
C427        C428   1.344       .  D
C427        H439   1.086       .  S
C428        C429   1.493       .  S
C428        H440   1.086       .  S
C429        C430   1.400       .  A
C429        C434   1.414       .  A
C430        C431   1.395       .  A
C430        H441   1.084       .  S
C431        C432   1.406       .  A
C431        H442   1.083       .  S
C432        C433   1.404       .  A
C433        C434   1.409       .  A
C433        H443   1.083       .  S
C434        H444   1.082       .  S
C445        C446   1.406       .  A
C445        C450   1.404       .  A
C446        C447   1.396       .  A
C446        H459   1.084       .  S
C447        C448   1.400       .  A
C447        H460   1.084       .  S
C448        C449   1.413       .  A
C448        C451   1.491       .  S
C449        C450   1.409       .  A
C449        H461   1.082       .  S
C450        H462   1.083       .  S
C451        C452   1.344       .  D
C451        H463   1.086       .  S
C452        C453   1.492       .  S
C452        H464   1.086       .  S
C453        C454   1.401       .  A
C453        C458   1.412       .  A
C454        C455   1.397       .  A
C454        H465   1.083       .  S
C455        C456   1.405       .  A
C455        H466   1.084       .  S
C456        C457   1.404       .  A
C457        C458   1.408       .  A
C457        H467   1.083       .  S
C458        H468   1.082       .  S
C469        C470   1.406       .  A
C469        C474   1.405       .  A
C470        C471   1.395       .  A
C470        H483   1.083       .  S
C471        C472   1.401       .  A
C471        H484   1.083       .  S
C472        C473   1.409       .  A
C472        C475   1.484       .  S
C473        C474   1.399       .  A
C473        H485   1.082       .  S
C474        H486   1.083       .  S
C475        C476   1.345       .  D
C475        H487   1.085       .  S
C476        C477   1.483       .  S
C476        H488   1.084       .  S
C477        C478   1.401       .  A
C477        C482   1.409       .  A
C478        C479   1.395       .  A
C478        H489   1.083       .  S
C479        C480   1.407       .  A
C479        H490   1.084       .  S
C480        C481   1.405       .  A
C481        C482   1.400       .  A
C481        H491   1.082       .  S
C482        H492   1.082       .  S
C493        C494   1.407       .  A
C493        C498   1.409       .  A
C494        C495   1.408       .  A
C494        H507   1.083       .  S
C495        C496   1.409       .  A
C495        H508   1.082       .  S
C496        C497   1.407       .  A
C496        C499   1.499       .  S
C497        C498   1.397       .  A
C497        H509   1.082       .  S
C498        H510   1.082       .  S
C499        C500   1.352       .  D
C499        H511   1.083       .  S
C500        C501   1.495       .  S
C500        H512   1.083       .  S
C501        C502   1.403       .  A
C501        C506   1.410       .  A
C502       C2195   1.397       .  A
C502        H513   1.083       .  S
C503       C2194   1.398       .  A
C503       C2196   1.408       .  A
C503        H514   1.083       .  S
C504        C505   1.408       .  A
C504       C2195   1.407       .  A
C505        C506   1.409       .  A
C505        H515   1.082       .  S
C506        H516   1.082       .  S
C517       C2020   1.479   1_554  S
C517        C522   1.406   1_554  A
C517       C2210   1.402       .  A
C518       C2209   1.402       .  A
C518       C2211   1.397       .  A
C518        H531   1.084       .  S
C519        C520   1.406       .  A
C519       C2210   1.396       .  A
C519       H2224   1.083       .  S
C520        C521   1.410       .  A
C520        C523   1.494       .  S
C521        C522   1.406   1_554  A
C521        H533   1.081       .  S
C522        H534   1.083       .  S
C523        C524   1.351       .  D
C523        H535   1.087       .  S
C524        C525   1.490       .  S
C524        H536   1.084       .  S
C525        C526   1.405       .  A
C525        C530   1.404       .  A
C526        C527   1.407       .  A
C526        H537   1.083       .  S
C527        C528   1.409       .  A
C527        H538   1.083       .  S
C528        C529   1.409       .  A
C529        C530   1.395       .  A
C529        H539   1.083       .  S
C530        H540   1.083       .  S
H532       C2211   1.083       .  S
C541        C542   1.406       .  A
C541        C546   1.406       .  A
C542        C543   1.401       .  A
C542        H555   1.083       .  S
C543        C544   1.404       .  A
C543        H556   1.083       .  S
C544        C545   1.406       .  A
C544        C547   1.485       .  S
C545        C546   1.394       .  A
C545        H557   1.083       .  S
C546        H558   1.083       .  S
C547        C548   1.349       .  D
C547        H559   1.083       .  S
C548        C549   1.486       .  S
C548        H560   1.085       .  S
C549        C550   1.404       .  A
C549        C554   1.408       .  A
C550        C551   1.394       .  A
C550        H561   1.083       .  S
C551        C552   1.404       .  A
C551        H562   1.083       .  S
C552        C553   1.407       .  A
C553        C554   1.400       .  A
C553        H563   1.083       .  S
C554        H564   1.080       .  S
C565        C566   1.408       .  A
C565        C570   1.407       .  A
C566        C567   1.394       .  A
C566        H579   1.084       .  S
C567        C568   1.399       .  A
C567        H580   1.083       .  S
C568        C569   1.411       .  A
C568        C571   1.490       .  S
C569        C570   1.410       .  A
C569        H581   1.083       .  S
C570        H582   1.082       .  S
C571        C572   1.346       .  D
C571        H583   1.085       .  S
C572        C573   1.493       .  S
C572        H584   1.086       .  S
C573        C574   1.402       .  A
C573        C578   1.410       .  A
C574        C575   1.398       .  A
C574        H585   1.083       .  S
C575        C576   1.408       .  A
C575        H586   1.083       .  S
C576        C577   1.407       .  A
C577        C578   1.406       .  A
C577        H587   1.082       .  S
C578        H588   1.082       .  S
C589        C590   1.403       .  A
C589        C594   1.406       .  A
C590        C591   1.395       .  A
C590        H603   1.083       .  S
C591        C592   1.404       .  A
C591        H604   1.084       .  S
C592        C593   1.409       .  A
C592        C595   1.490       .  S
C593        C594   1.404       .  A
C593        H605   1.080       .  S
C594        H606   1.084       .  S
C595        C596   1.349       .  D
C595        H607   1.088       .  S
C596        C597   1.487       .  S
C596        H608   1.084       .  S
C597        C598   1.405       .  A
C597        C602   1.404       .  A
C598        C599   1.406       .  A
C598        H609   1.083       .  S
C599        C600   1.408       .  A
C599        H610   1.083       .  S
C600        C601   1.406       .  A
C601        C602   1.394       .  A
C601        H611   1.083       .  S
C602        H612   1.083       .  S
C613        C614   1.406       .  A
C613        C618   1.404       .  A
C614        C615   1.400       .  A
C614        H627   1.084       .  S
C615        C616   1.403       .  A
C615        H628   1.083       .  S
C616        C617   1.408       .  A
C616        C619   1.486       .  S
C617        C618   1.402       .  A
C617        H629   1.083       .  S
C618        H630   1.083       .  S
C619        C620   1.344       .  D
C619        H631   1.087       .  S
C620        C621   1.486       .  S
C620        H632   1.087       .  S
C621        C622   1.402       .  A
C621        C626   1.407       .  A
C622        C623   1.400       .  A
C622        H633   1.083       .  S
C623        C624   1.407       .  A
C623        H634   1.083       .  S
C624        C625   1.405       .  A
C625        C626   1.402       .  A
C625        H635   1.083       .  S
C626        H636   1.083       .  S
C637        C638   1.402       .  A
C637        C642   1.406       .  A
C638        C639   1.395       .  A
C638        H651   1.084       .  S
C639        C640   1.405       .  A
C639        H652   1.084       .  S
C640        C641   1.411       .  A
C640        C643   1.493       .  S
C641        C642   1.406       .  A
C641        H653   1.081       .  S
C642        H654   1.083       .  S
C643        C644   1.351   1_545  D
C643        H655   1.087       .  S
C644        C645   1.491       .  S
C644        H656   1.084       .  S
C645        C646   1.405       .  A
C645        C650   1.405       .  A
C646        C647   1.407       .  A
C646        H657   1.083       .  S
C647        C648   1.409       .  A
C647        H658   1.083       .  S
C648        C649   1.407       .  A
C649        C650   1.395       .  A
C649        H659   1.083       .  S
C650        H660   1.083       .  S
C661        C662   1.407       .  A
C661        C666   1.406       .  A
C662        C663   1.395       .  A
C662        H675   1.083       .  S
C663        C664   1.401       .  A
C663        H676   1.084       .  S
C664        C665   1.407       .  A
C664        C667   1.482       .  S
C665        C666   1.398       .  A
C665        H677   1.082       .  S
C666        H678   1.083       .  S
C667        C668   1.345       .  D
C667        H679   1.085       .  S
C668        C669   1.483       .  S
C668        H680   1.086       .  S
C669        C670   1.401       .  A
C669        C674   1.409       .  A
C670        C671   1.395       .  A
C670        H681   1.084       .  S
C671        C672   1.407       .  A
C671        H682   1.083       .  S
C672       C1934   1.481   1_554  S
C672        C673   1.405       .  A
C673        C674   1.398       .  A
C673        H683   1.083       .  S
C674        H684   1.081       .  S
C685        C686   1.405       .  A
C685        C690   1.409       .  A
C686        C687   1.404       .  A
C686        H699   1.084       .  S
C687        C688   1.407       .  A
C687        H700   1.082       .  S
C688        C689   1.406       .  A
C688        C691   1.494       .  S
C689        C690   1.403       .  A
C689        H701   1.083       .  S
C690        H702   1.082       .  S
C691        C692   1.354       .  D
C691        H703   1.084       .  S
C692        C693   1.496       .  S
C692        H704   1.084       .  S
C693        C694   1.409       .  A
C693        C698   1.404       .  A
C694        C695   1.409       .  A
C694        H705   1.082       .  S
C695        C696   1.407       .  A
C695        H706   1.083       .  S
C696        C697   1.410       .  A
C697        C698   1.397       .  A
C697        H707   1.082       .  S
C698        H708   1.083       .  S
C709        C710   1.406       .  A
C709        C714   1.406       .  A
C710        C711   1.396       .  A
C710        H723   1.084       .  S
C711        C712   1.402       .  A
C711        H724   1.083       .  S
C712        C713   1.406       .  A
C712        C715   1.482       .  S
C713        C714   1.397       .  A
C713        H725   1.082       .  S
C714        H726   1.082       .  S
C715       C2408   1.347       .  D
C715        H727   1.084       .  S
C716        C717   1.486       .  S
C716       C2407   1.348   1_554  D
C716        H728   1.084       .  S
C717        C718   1.404       .  A
C717        C722   1.408       .  A
C718        C719   1.396       .  A
C718        H729   1.083       .  S
C719        C720   1.404       .  A
C719        H730   1.084       .  S
C720        C721   1.407       .  A
C721        C722   1.400       .  A
C721        H731   1.082       .  S
C722        H732   1.082       .  S
C733        C734   1.405       .  A
C733        C738   1.405       .  A
C734        C735   1.403       .  A
C734        H747   1.083       .  S
C735        C736   1.407       .  A
C735        H748   1.083       .  S
C736        C737   1.409       .  A
C736        C739   1.496       .  S
C737        C738   1.395       .  A
C737        H749   1.078       .  S
C738        H750   1.083       .  S
C739        C740   1.350       .  D
C739        H751   1.086       .  S
C740        C741   1.485       .  S
C740        H752   1.081       .  S
C741        C742   1.403       .  A
C741        C746   1.408       .  A
C742        C743   1.396       .  A
C742        H753   1.084       .  S
C743        C744   1.404       .  A
C743        H754   1.084       .  S
C744        C745   1.404       .  A
C745        C746   1.403       .  A
C745        H755   1.082       .  S
C746        H756   1.082       .  S
C757        C758   1.409   1_545  A
C757        C762   1.406       .  A
C758        C759   1.406       .  A
C758        H771   1.083       .  S
C759        C760   1.404   1_565  A
C759        H772   1.083       .  S
C760        C761   1.405       .  A
C760        C763   1.489       .  S
C761        C762   1.396       .  A
C761        H773   1.084       .  S
C762        H774   1.083       .  S
C763        C764   1.350       .  D
C763        H775   1.083       .  S
C764        C765   1.492       .  S
C764        H776   1.087       .  S
C765        C766   1.405       .  A
C765        C770   1.410       .  A
C766        C767   1.395       .  A
C766        H777   1.083       .  S
C767        C768   1.402       .  A
C767        H778   1.084       .  S
C768        C769   1.407       .  A
C769        C770   1.406       .  A
C769        H779   1.083       .  S
C770        H780   1.081       .  S
C781        C782   1.406       .  A
C781        C786   1.402       .  A
C782        C783   1.404       .  A
C782        H795   1.083   1_565  S
C783        C784   1.409       .  A
C783        H796   1.081       .  S
C784        C785   1.404       .  A
C784        C787   1.488       .  S
C785        C786   1.395       .  A
C785        H797   1.083       .  S
C786        H798   1.084       .  S
C787        C788   1.350       .  D
C787        H799   1.087       .  S
C788        C789   1.486       .  S
C788        H800   1.084       .  S
C789        C794   1.405       .  A
C789       C2482   1.403       .  A
C790        C791   1.393       .  A
C790       C2481   1.404       .  A
C790        H801   1.083       .  S
C791       C2484   1.407       .  A
C791        H802   1.083       .  S
C792       C1931   1.487   1_554  S
C792        C793   1.408       .  A
C792       C2483   1.409       .  A
C793        C794   1.406       .  A
C793        H803   1.083       .  S
C794        H804   1.083       .  S
C805        C806   1.407       .  A
C805        C810   1.409       .  A
C806        C807   1.408       .  A
C806        H819   1.083       .  S
C807        C808   1.408       .  A
C807        H820   1.083       .  S
C808        C809   1.406       .  A
C808        C811   1.498       .  S
C809        C810   1.396       .  A
C809        H821   1.081       .  S
C810        H822   1.083       .  S
C811        C812   1.352       .  D
C811        H823   1.085       .  S
C812        C813   1.493       .  S
C812        H824   1.085       .  S
C813        C814   1.403       .  A
C813        C818   1.411       .  A
C814        C815   1.395       .  A
C814        H825   1.084       .  S
C815        C816   1.406       .  A
C815        H826   1.083       .  S
C816        C817   1.408       .  A
C817        C818   1.409       .  A
C817        H827   1.083       .  S
C818        H828   1.081       .  S
C829        C830   1.407       .  A
C829        C834   1.404       .  A
C830        C831   1.393       .  A
C830        H843   1.083       .  S
C831        C832   1.399       .  A
C831        H844   1.084       .  S
C832        C833   1.407       .  A
C832        C835   1.477       .  S
C833        C834   1.395       .  A
C833        H845   1.082       .  S
C834       H2538   1.083       .  S
C835        C836   1.344       .  D
C835        H847   1.082       .  S
C836        C837   1.483       .  S
C836        H848   1.086       .  S
C837        C838   1.402       .  A
C837        C842   1.410       .  A
C838        C839   1.392       .  A
C838        H849   1.083       .  S
C839        C840   1.403       .  A
C839        H850   1.083       .  S
C840        C841   1.403       .  A
C841        C842   1.397       .  A
C841        H851   1.083       .  S
C842        H852   1.079       .  S
H846       C2526   1.083       .  S
C853        C854   1.407       .  A
C853        C858   1.407       .  A
C854        C855   1.405       .  A
C854        H867   1.083       .  S
C855        C856   1.406       .  A
C855        H868   1.083       .  S
C856        C857   1.406       .  A
C856        C859   1.493       .  S
C857        C858   1.394       .  A
C857        H869   1.082       .  S
C858        H870   1.083       .  S
C859        C860   1.349       .  D
C859        H871   1.085       .  S
C860        C861   1.488       .  S
C860        H872   1.085       .  S
C861        C862   1.402       .  A
C861        C866   1.410       .  A
C862        C863   1.392       .  A
C862        H873   1.084       .  S
C863        C864   1.405       .  A
C863       H2566   1.083       .  S
C864        C865   1.407       .  A
C865        C866   1.407       .  A
C865        H875   1.083       .  S
C866        H876   1.082       .  S
H874       C2555   1.083       .  S
C877        C878   1.405       .  A
C877        C882   1.406       .  A
C878        C879   1.391       .  A
C878        H891   1.082       .  S
C879        C880   1.400       .  A
C879        H892   1.084       .  S
C880        C881   1.408       .  A
C880        C883   1.480       .  S
C881        C882   1.401       .  A
C881        H893   1.081       .  S
C882        H894   1.083       .  S
C883        C884   1.345       .  D
C883        H895   1.086       .  S
C884        C885   1.483       .  S
C884        H896   1.086       .  S
C885        C886   1.402       .  A
C885        C890   1.407       .  A
C886        C887   1.399       .  A
C886        H897   1.084       .  S
C887        C888   1.407       .  A
C887        H898   1.083       .  S
C888        C889   1.404       .  A
C889        C890   1.393       .  A
C889        H899   1.083       .  S
C890        H900   1.082       .  S
C901        C902   1.403       .  A
C901        C906   1.406       .  A
C902        C903   1.408       .  A
C902        H915   1.083       .  S
C903        C904   1.411       .  A
C903        H916   1.083       .  S
C904        C905   1.404       .  A
C904        C907   1.493       .  S
C905        C906   1.395       .  A
C905        H917   1.081       .  S
C906        H918   1.084       .  S
C907        C908   1.356       .  D
C907        H919   1.085       .  S
C908        C909   1.492       .  S
C908        H920   1.085       .  S
C909        C914   1.403       .  A
C909       C2602   1.410       .  A
C910        C911   1.410       .  A
C910       C2601   1.412   1_554  A
C910        H921   1.083       .  S
C911        C912   1.403       .  A
C911        H922   1.082       .  S
C912       C2605   1.409   1_554  A
C913        C914   1.395       .  A
C913       C2604   1.408       .  A
C913        H923   1.084       .  S
C914        H924   1.082       .  S
C925        C926   1.407       .  A
C925        C930   1.409       .  A
C926        C927   1.398       .  A
C926        H939   1.083       .  S
C927        C928   1.403       .  A
C927        H940   1.083       .  S
C928        C929   1.411       .  A
C928        C931   1.497       .  S
C929        C930   1.410       .  A
C929        H941   1.082       .  S
C930        H942   1.083       .  S
C931       C2624   1.352       .  D
C931        H943   1.085       .  S
C932        C933   1.501       .  S
C932       C2623   1.353       .  D
C932        H944   1.085       .  S
C933        C934   1.409       .  A
C933        C938   1.407       .  A
C934        C935   1.409       .  A
C934        H945   1.083       .  S
C935        C936   1.407       .  A
C935        H946   1.083       .  S
C936        C937   1.409       .  A
C937        C938   1.398       .  A
C937        H947   1.083       .  S
C938        H948   1.081       .  S
C949        C950   1.405       .  A
C949        C954   1.406       .  A
C950        C951   1.397       .  A
C950        H963   1.084       .  S
C951        C952   1.403       .  A
C951        H964   1.082       .  S
C952        C953   1.408       .  A
C952        C955   1.487       .  S
C953        C954   1.398       .  A
C953        H965   1.082       .  S
C954        H966   1.082       .  S
C955        C956   1.349       .  D
C955        H967   1.082       .  S
C956        C957   1.489       .  S
C956        H968   1.083       .  S
C957        C958   1.404       .  A
C957        C962   1.409       .  A
C958        C959   1.397       .  A
C958        H969   1.083       .  S
C959        C960   1.405       .  A
C959        H970   1.083       .  S
C960        C961   1.406       .  A
C961        C962   1.397       .  A
C961        H971   1.083       .  S
C962        H972   1.080       .  S
C973        C974   1.408       .  A
C973        C978   1.406       .  A
C974        C975   1.394       .  A
C974        H987   1.083       .  S
C975        C976   1.400       .  A
C975        H988   1.083       .  S
C976        C977   1.411       .  A
C976        C979   1.490       .  S
C977        C978   1.408       .  A
C977        H989   1.082       .  S
C978        H990   1.083       .  S
C979        C980   1.346       .  D
C979        H991   1.086       .  S
C980        C981   1.492       .  S
C980        H992   1.086       .  S
C981        C982   1.401       .  A
C981        C986   1.411       .  A
C982        C983   1.397       .  A
C982        H993   1.083       .  S
C983        C984   1.408       .  A
C983       H2686   1.083   1_554  S
C984        C985   1.407       .  A
C985        C986   1.405       .  A
C985        H995   1.083       .  S
C986        H996   1.082       .  S
H994       C2675   1.083       .  S
C997        C998   1.406       .  A
C997       C1002   1.405       .  A
C998        C999   1.396       .  A
C998       H1011   1.084       .  S
C999       C1000   1.402       .  A
C999       H1012   1.083       .  S
C1000      C1001   1.407       .  A
C1000      C1003   1.481       .  S
C1001      C1002   1.395       .  A
C1001      H1013   1.081       .  S
C1002      H1014   1.082       .  S
C1003      C1004   1.346       .  D
C1003      H1015   1.085       .  S
C1004      C1005   1.478       .  S
C1004      H1016   1.083       .  S
C1005      C1006   1.401       .  A
C1005      C1010   1.406       .  A
C1006      C1007   1.395       .  A
C1006      H1017   1.083       .  S
C1007      C1008   1.405       .  A
C1007      H1018   1.083       .  S
C1008      C1009   1.406       .  A
C1009      C1010   1.396       .  A
C1009      H1019   1.082       .  S
C1010      H1020   1.083       .  S
C1021      C1022   1.402       .  A
C1021      C1026   1.408       .  A
C1022      C1023   1.406       .  A
C1022      H1035   1.083       .  S
C1023      C1024   1.411       .  A
C1023      H1036   1.083       .  S
C1024      C1025   1.404       .  A
C1024      C1027   1.494       .  S
C1025      C1026   1.396       .  A
C1025      H1037   1.082       .  S
C1026      H1038   1.084       .  S
C1027      C1028   1.357       .  D
C1027      H1039   1.083       .  S
C1028      C1029   1.496       .  S
C1028      H1040   1.084       .  S
C1029      C1030   1.411       .  A
C1029      C1034   1.405       .  A
C1030      C1031   1.408       .  A
C1030      H1041   1.083       .  S
C1031      C1032   1.403       .  A
C1031      H1042   1.083       .  S
C1032      C1033   1.409       .  A
C1033      C1034   1.395       .  A
C1033      H1043   1.084       .  S
C1034      H1044   1.080       .  S
C1045      C1046   1.401       .  A
C1045      C1050   1.406       .  A
C1046      C1047   1.404       .  A
C1046      H1059   1.083       .  S
C1047      C1048   1.409       .  A
C1047      H1060   1.083       .  S
C1048      C1049   1.405       .  A
C1048      C1051   1.490       .  S
C1049      C1050   1.395       .  A
C1049      H1061   1.082       .  S
C1050      H1062   1.084       .  S
C1051      C1052   1.355       .  D
C1051      H1063   1.085   1_565  S
C1052      C1053   1.492   1_565  S
C1052      H1064   1.085       .  S
C1053      C1054   1.410       .  A
C1053      C1058   1.404       .  A
C1054      C1055   1.406       .  A
C1054      H1065   1.084       .  S
C1055      C1056   1.402       .  A
C1055      H1066   1.082       .  S
C1056      C1057   1.407       .  A
C1057      C1058   1.393       .  A
C1057      H1067   1.085       .  S
C1058      H1068   1.081       .  S
C1069      C1070   1.405       .  A
C1069      C1074   1.405       .  A
C1070      C1071   1.398       .  A
C1070      H1083   1.084       .  S
C1071      C1072   1.403       .  A
C1071      H1084   1.083       .  S
C1072      C1073   1.406       .  A
C1072      C1075   1.483       .  S
C1073      C1074   1.394       .  A
C1073      H1085   1.082       .  S
C1074      H1086   1.082       .  S
C1075      C1076   1.347       .  D
C1075      H1087   1.083       .  S
C1076      C1077   1.481       .  S
C1076      H1088   1.084       .  S
C1077      C1078   1.402       .  A
C1077      C1082   1.407       .  A
C1078      C1079   1.395       .  A
C1078      H1089   1.083       .  S
C1079      C1080   1.405       .  A
C1079      H1090   1.084       .  S
C1080      C1081   1.406       .  A
C1081      C1082   1.396       .  A
C1081      H1091   1.082       .  S
C1082      H1092   1.082       .  S
C1093      C1094   1.408       .  A
C1093      C1098   1.409       .  A
C1094      C1095   1.400       .  A
C1094      H1107   1.082       .  S
C1095      C1096   1.404       .  A
C1095      H1108   1.084       .  S
C1096      C1097   1.412       .  A
C1096      C1099   1.500       .  S
C1097      C1098   1.409       .  A
C1097      H2801   1.081       .  S
C1098      H1110   1.084       .  S
C1099      C2792   1.350   1_554  D
C1099      H1111   1.087       .  S
C1100      C1101   1.500       .  S
C1100      C2791   1.352       .  D
C1100      H1112   1.088       .  S
C1101      C1102   1.409       .  A
C1101      C1106   1.409       .  A
C1102      C1103   1.407       .  A
C1102      H1113   1.084       .  S
C1103      C1104   1.405       .  A
C1103      H1114   1.082       .  S
C1104      C1105   1.404       .  A
C1105      C1106   1.395       .  A
C1105      H1115   1.084       .  S
C1106      H2808   1.080       .  S
H1109      C2789   1.082       .  S
H1116      C2798   1.081   1_554  S
C1117      C1118   1.405       .  A
C1117      C1122   1.405       .  A
C1118      C1119   1.397       .  A
C1118      H1131   1.083       .  S
C1119      C1120   1.403       .  A
C1119      H1132   1.084       .  S
C1120      C1121   1.409       .  A
C1120      C1123   1.486   1_554  S
C1121      C1122   1.397       .  A
C1121      H1133   1.081       .  S
C1122      H1134   1.083       .  S
C1123      C2816   1.346       .  D
C1123      H1135   1.086       .  S
C1124      C1125   1.483       .  S
C1124      C2815   1.346       .  D
C1124      H1136   1.085       .  S
C1125      C1126   1.403       .  A
C1125      C1130   1.407       .  A
C1126      C1127   1.397       .  A
C1126      H1137   1.084       .  S
C1127      C1128   1.406       .  A
C1127      H1138   1.083       .  S
C1128      C1129   1.405       .  A
C1129      C1130   1.396       .  A
C1129      H1139   1.083       .  S
C1130      H1140   1.082       .  S
C1141      C1142   1.407       .  A
C1141      C1146   1.410       .  A
C1142      C1143   1.403       .  A
C1142      H1155   1.084       .  S
C1143      C1144   1.406       .  A
C1143      H1156   1.082       .  S
C1144      C1145   1.406       .  A
C1144      C1147   1.494       .  S
C1145      C1146   1.403       .  A
C1145      H1157   1.084       .  S
C1146      H1158   1.081       .  S
C1147      C1148   1.352       .  D
C1147      H1159   1.084       .  S
C1148      C1149   1.495       .  S
C1148      H1160   1.084       .  S
C1149      C1150   1.408       .  A
C1149      C1154   1.406       .  A
C1150      C1151   1.406       .  A
C1150      H1161   1.082       .  S
C1151      C1152   1.404       .  A
C1151      H1162   1.083       .  S
C1152      C1153   1.408       .  A
C1153      C1154   1.399       .  A
C1153      H1163   1.083       .  S
C1154      H1164   1.083       .  S
C1165      C1166   1.408   1_455  A
C1165      C1170   1.406       .  A
C1166      C1167   1.402       .  A
C1166      H1179   1.083       .  S
C1167      C1168   1.402   1_655  A
C1167      H1180   1.083       .  S
C1168      C1169   1.405       .  A
C1168      C1171   1.482       .  S
C1169      C1170   1.394       .  A
C1169      H1181   1.084       .  S
C1170      H1182   1.083       .  S
C1171      C1172   1.347       .  D
C1171      H1183   1.083       .  S
C1172      C1173   1.486       .  S
C1172      H1184   1.087       .  S
C1173      C1174   1.404       .  A
C1173      C1178   1.410       .  A
C1174      C1175   1.393       .  A
C1174      H1185   1.083       .  S
C1175      C1176   1.401       .  A
C1175      H1186   1.084       .  S
C1176      C1799   1.471   1_554  S
C1176      C2869   1.404       .  A
C1177      C2868   1.405       .  A
C1177      C2870   1.402       .  A
C1177      H1187   1.083       .  S
C1178      C2869   1.402       .  A
C1178      H2880   1.081       .  S
H1188      C2870   1.080       .  S
C1189      C1802   1.480   1_554  S
C1189      C1190   1.405       .  A
C1189      C1194   1.406       .  A
C1190      C1191   1.397       .  A
C1190      H1203   1.083       .  S
C1191      C1192   1.404       .  A
C1191      H1204   1.083       .  S
C1192      C1193   1.406       .  A
C1192      C1195   1.483       .  S
C1193      C1194   1.396       .  A
C1193      H1205   1.081       .  S
C1194      H1206   1.083       .  S
C1195      C1196   1.348       .  D
C1195      H1207   1.084       .  S
C1196      C1197   1.484       .  S
C1196      H1208   1.084       .  S
C1197      C1198   1.404       .  A
C1197      C1202   1.406       .  A
C1198      C1199   1.398       .  A
C1198      H1209   1.083       .  S
C1199      C1200   1.405       .  A
C1199      H1210   1.083       .  S
C1200      C1201   1.406       .  A
C1201      C1202   1.394       .  A
C1201      H1211   1.083       .  S
C1202      H1212   1.082       .  S
C1213      C1214   1.407       .  A
C1213      C1218   1.407       .  A
C1214      C1215   1.404       .  A
C1214      H1227   1.083       .  S
C1215      C1216   1.406       .  A
C1215      H1228   1.083       .  S
C1216      C1217   1.406       .  A
C1216      C1219   1.491       .  S
C1217      C1218   1.394       .  A
C1217      H1229   1.081       .  S
C1218      H1230   1.083       .  S
C1219      C1220   1.349       .  D
C1219      H1231   1.085       .  S
C1220      C1221   1.487       .  S
C1220      H1232   1.085       .  S
C1221      C1222   1.403       .  A
C1221      C1226   1.409       .  A
C1222      C1223   1.395       .  A
C1222      H1233   1.084       .  S
C1223      C1224   1.405       .  A
C1223      H1234   1.083       .  S
C1224      C1225   1.406       .  A
C1225      C1226   1.404       .  A
C1225      H1235   1.083       .  S
C1226      H1236   1.081       .  S
C1237      C1238   1.404       .  A
C1237      C1242   1.405       .  A
C1238      C1239   1.400       .  A
C1238      H1251   1.082       .  S
C1239      C1240   1.403       .  A
C1239      H1252   1.085       .  S
C1240      C1241   1.406       .  A
C1240      C1243   1.485       .  S
C1241      C1242   1.401       .  A
C1241      H1253   1.081       .  S
C1242      H1254   1.085       .  S
C1243      C1244   1.347       .  D
C1243      H1255   1.089       .  S
C1244      C1245   1.485       .  S
C1244      H1256   1.089       .  S
C1245      C1246   1.404       .  A
C1245      C1250   1.406       .  A
C1246      C1247   1.400       .  A
C1246      H1257   1.085       .  S
C1247      C1248   1.403       .  A
C1247      H1258   1.082       .  S
C1248      C1249   1.405       .  A
C1249      C1250   1.402       .  A
C1249      H1259   1.085   1_655  S
C1250      H1260   1.081       .  S
C1261      C1262   1.406       .  A
C1261      C1266   1.404       .  A
C1262      C1263   1.394       .  A
C1262      H1275   1.082       .  S
C1263      C1264   1.403       .  A
C1263      H1276   1.085       .  S
C1264      C1265   1.411       .  A
C1264      C1267   1.490       .  S
C1265      C1266   1.401       .  A
C1265      H1277   1.078       .  S
C1266      H1278   1.084       .  S
C1267      C1268   1.347       .  D
C1267      H1279   1.087       .  S
C1268      C1269   1.485       .  S
C1268      H1280   1.084       .  S
C1269      C1270   1.401       .  A
C1269      C1274   1.408       .  A
C1270      C1271   1.397       .  A
C1270      H1281   1.084       .  S
C1271      C1272   1.407       .  A
C1271      H1282   1.082       .  S
C1272      C1273   1.406       .  A
C1273      C1274   1.399       .  A
C1273      H1283   1.084       .  S
C1274      H1284   1.081       .  S
C1285      C1286   1.405       .  A
C1285      C1290   1.408       .  A
C1286      C1287   1.405       .  A
C1286      H1299   1.083       .  S
C1287      C1288   1.408       .  A
C1287      H1300   1.082       .  S
C1288      C1289   1.407       .  A
C1288      C1291   1.495       .  S
C1289      C1290   1.401       .  A
C1289      H1301   1.082       .  S
C1290      H1302   1.083       .  S
C1291      C1292   1.354       .  D
C1291      H1303   1.084       .  S
C1292      C1293   1.496       .  S
C1292      H1304   1.084       .  S
C1293      C1294   1.408       .  A
C1293      C1298   1.405       .  A
C1294      C1295   1.407       .  A
C1294      H1305   1.082       .  S
C1295      C1296   1.406       .  A
C1295      H1306   1.083       .  S
C1296      C1297   1.410       .  A
C1297      C1298   1.399       .  A
C1297      H2999   1.082       .  S
C1298      H1308   1.082       .  S
H1307      C2989   1.082       .  S
C1309      C1310   1.409       .  A
C1309      C1314   1.408       .  A
C1310      C1311   1.406       .  A
C1310      H1323   1.083       .  S
C1311      C1312   1.404       .  A
C1311      H1324   1.082       .  S
C1312      C1313   1.404       .  A
C1312      C1315   1.488       .  S
C1313      C1314   1.395       .  A
C1313      H1325   1.084       .  S
C1314      H1326   1.082       .  S
C1315      C1316   1.350   1_655  D
C1315      H1327   1.083       .  S
C1316      C1317   1.492       .  S
C1316      H1328   1.087   1_455  S
C1317      C1318   1.405       .  A
C1317      C1322   1.410       .  A
C1318      C1319   1.395       .  A
C1318      H1329   1.083       .  S
C1319      C1320   1.403       .  A
C1319      H1330   1.084       .  S
C1320      C1321   1.406       .  A
C1321      C1322   1.405       .  A
C1321      H1331   1.083       .  S
C1322      H1332   1.080       .  S
C1333      C1334   1.407       .  A
C1333      C1338   1.408       .  A
C1334      C1335   1.397       .  A
C1334      H1347   1.083       .  S
C1335      C1336   1.403       .  A
C1335      H1348   1.084       .  S
C1336      C1337   1.410       .  A
C1336      C1339   1.493       .  S
C1337      C1338   1.407       .  A
C1337      H1349   1.081       .  S
C1338      H1350   1.083       .  S
C1339      C1340   1.351       .  D
C1339      H1351   1.086       .  S
C1340      C1341   1.497       .  S
C1340      H1352   1.086       .  S
C1341      C1342   1.407       .  A
C1341      C1346   1.407       .  A
C1342      C1343   1.406       .  A
C1342      H1353   1.083       .  S
C1343      C1344   1.407       .  A
C1343      H3046   1.083       .  S
C1344      C1345   1.408       .  A
C1345      C1346   1.398       .  A
C1345      H1355   1.083       .  S
C1346      H1356   1.082       .  S
H1354      C3035   1.083       .  S
C1357      C1358   1.407       .  A
C1357      C1362   1.406       .  A
C1358      C1359   1.395       .  A
C1358      H1371   1.083       .  S
C1359      C1360   1.401       .  A
C1359      H1372   1.084       .  S
C1360      C1361   1.408       .  A
C1360      C1363   1.483       .  S
C1361      C1362   1.398       .  A
C1361      H1373   1.082       .  S
C1362      H1374   1.083       .  S
C1363      C1364   1.346       .  D
C1363      H1375   1.085       .  S
C1364      C1365   1.485       .  S
C1364      H1376   1.085       .  S
C1365      C1366   1.402       .  A
C1365      C1370   1.409       .  A
C1366      C1367   1.395       .  A
C1366      H1377   1.084       .  S
C1367      C1368   1.407       .  A
C1367      H1378   1.083       .  S
C1368      C1369   1.404       .  A
C1369      C1370   1.398       .  A
C1369      H1379   1.083       .  S
C1370      H1380   1.080       .  S
C1381      C1382   1.408       .  A
C1381      C1386   1.409       .  A
C1382      C1383   1.407       .  A
C1382      H1395   1.083       .  S
C1383      C1384   1.408       .  A
C1383      H1396   1.083       .  S
C1384      C1385   1.405       .  A
C1384      C1387   1.495       .  S
C1385      C1386   1.395       .  A
C1385      H1397   1.082       .  S
C1386      H1398   1.083       .  S
C1387      C1388   1.351       .  D
C1387      H1399   1.086       .  S
C1388      C1389   1.491       .  S
C1388      H1400   1.086       .  S
C1389      C1390   1.403       .  A
C1389      C1394   1.409       .  A
C1390      C1391   1.397       .  A
C1390      H1401   1.084       .  S
C1391      C1392   1.406       .  A
C1391      H1402   1.083       .  S
C1392      C1393   1.408       .  A
C1393      C1394   1.406       .  A
C1393      H1403   1.083       .  S
C1394      H1404   1.081       .  S
C1405      C1406   1.407       .  A
C1405      C1410   1.405       .  A
C1406      C1407   1.396       .  A
C1406      H1419   1.083       .  S
C1407      C1408   1.400       .  A
C1407      H1420   1.084       .  S
C1408      C1409   1.407       .  A
C1408      C1411   1.480       .  S
C1409      C1410   1.397       .  A
C1409      H1421   1.082       .  S
C1410      H1422   1.083       .  S
C1411      C1412   1.345       .  D
C1411      H1423   1.085       .  S
C1412      C1413   1.482       .  S
C1412      H1424   1.086       .  S
C1413      C1414   1.401       .  A
C1413      C1418   1.408       .  A
C1414      C1415   1.394       .  A
C1414      H1425   1.084       .  S
C1415      C1416   1.406       .  A
C1415      H1426   1.083       .  S
C1416      C1417   1.404       .  A
C1417      C1418   1.398       .  A
C1417      H1427   1.083       .  S
C1418      H1428   1.081       .  S
C1429      C1430   1.404       .  A
C1429      C3126   1.409   1_554  A
C1430      C1431   1.409       .  A
C1430      H1443   1.083       .  S
C1431      C3124   1.412   1_554  A
C1431      H1444   1.083       .  S
C1432      C1433   1.405       .  A
C1432      C3123   1.411       .  A
C1432      C1435   1.496       .  S
C1433      C1434   1.396       .  A
C1433      H1445   1.081       .  S
C1434      C3121   1.409       .  A
C1434      H1446   1.084       .  S
C1435      C1436   1.358       .  D
C1435      H1447   1.084       .  S
C1436      C1437   1.497       .  S
C1436      H1448   1.085       .  S
C1437      C1438   1.412       .  A
C1437      C1442   1.405       .  A
C1438      C1439   1.408       .  A
C1438      H1449   1.084       .  S
C1439      C1440   1.403       .  A
C1439      H1450   1.082       .  S
C1440      C1441   1.408       .  A
C1441      C1442   1.395       .  A
C1441      H1451   1.084       .  S
C1442      H1452   1.080       .  S
C1453      C1454   1.406       .  A
C1453      C1458   1.410       .  A
C1454      C1455   1.407       .  A
C1454      H1467   1.083       .  S
C1455      C1456   1.408       .  A
C1455      H1468   1.082       .  S
C1456      C1457   1.405       .  A
C1456      C1459   1.495       .  S
C1457      C1458   1.400       .  A
C1457      H1469   1.083       .  S
C1458      H1470   1.082       .  S
C1459      C1460   1.353       .  D
C1459      H1471   1.084       .  S
C1460      C1461   1.495       .  S
C1460      H1472   1.084       .  S
C1461      C1462   1.407       .  A
C1461      C1466   1.406       .  A
C1462      C1463   1.405       .  A
C1462      H1473   1.081       .  S
C1463      C1464   1.405       .  A
C1463      H1474   1.084       .  S
C1464      C1465   1.409       .  A
C1465      C1466   1.402       .  A
C1465      H1475   1.082       .  S
C1466      H1476   1.084       .  S
C1477      C1478   1.406       .  A
C1477      C1482   1.406       .  A
C1478      C1479   1.393       .  A
C1478      H1491   1.082       .  S
C1479      C1480   1.401       .  A
C1479      H3184   1.084       .  S
C1480      C1481   1.408       .  A
C1480      C3175   1.480   1_554  S
C1481      C1482   1.399       .  A
C1481      H1493   1.081       .  S
C1482      H1494   1.084       .  S
C1483      C3172   1.479       .  S
C1483      C3176   1.344       .  D
C1483      H1495   1.086       .  S
C1484      C3177   1.483       .  S
C1484      C3175   1.345       .  D
C1484      H1496   1.086       .  S
C1485      C1486   1.400       .  A
C1485      C1490   1.408       .  A
C1485      C3176   1.480       .  S
C1486      C1487   1.395       .  A
C1486      H3189   1.084       .  S
C1487      C1488   1.406       .  A
C1487      H1498   1.082       .  S
C1488      C1489   1.405       .  A
C1489      C1490   1.396       .  A
C1489      H1499   1.084       .  S
C1490      H1500   1.081       .  S
H1492      C3171   1.084       .  S
H1497      C3178   1.084       .  S
C1501      C1502   1.407       .  A
C1501      C1506   1.408       .  A
C1502      C1503   1.407       .  A
C1502      H1515   1.083       .  S
C1503      C1504   1.409       .  A
C1503      H1516   1.083       .  S
C1504      C1505   1.408       .  A
C1504      C1507   1.501       .  S
C1505      C1506   1.398       .  A
C1505      H1517   1.080       .  S
C1506      H1518   1.083       .  S
C1507      C3200   1.353       .  D
C1507      H3211   1.085       .  S
C1508      C1509   1.492       .  S
C1508      C3199   1.351       .  D
C1508      H1520   1.083       .  S
C1509      C1510   1.402       .  A
C1509      C1514   1.410       .  A
C1510      C1511   1.395       .  A
C1510      H1521   1.083       .  S
C1511      C1512   1.406       .  A
C1511      H1522   1.084       .  S
C1512      C1513   1.407       .  A
C1513      C1514   1.407       .  A
C1513      H1523   1.082       .  S
C1514      H1524   1.082       .  S
H1519      C3199   1.084       .  S
C1525      C1526   1.405       .  A
C1525      C1530   1.407       .  A
C1526      C1527   1.398       .  A
C1526      H1539   1.083       .  S
C1527      C1528   1.404       .  A
C1527      H1540   1.082       .  S
C1528      C1529   1.407       .  A
C1528      C1531   1.486       .  S
C1529      C1530   1.397       .  A
C1529      H1541   1.081       .  S
C1530      H1542   1.082       .  S
C1531      C1532   1.349       .  D
C1531      H1543   1.082       .  S
C1532      C1533   1.485       .  S
C1532      H1544   1.081       .  S
C1533      C1534   1.404       .  A
C1533      C1538   1.406       .  A
C1534      C1535   1.398       .  A
C1534      H1545   1.082       .  S
C1535      C1536   1.406       .  A
C1535      H1546   1.084       .  S
C1536      C1537   1.406       .  A
C1537      C1538   1.396       .  A
C1537      H1547   1.082       .  S
C1538      H1548   1.083       .  S
C1549      C1550   1.402       .  A
C1549      C1554   1.406       .  A
C1550      C1551   1.406       .  A
C1550      H1563   1.083       .  S
C1551      C1552   1.410       .  A
C1551      H1564   1.084       .  S
C1552      C1553   1.404       .  A
C1552      C1555   1.491       .  S
C1553      C1554   1.395       .  A
C1553      H1565   1.081       .  S
C1554      H1566   1.084       .  S
C1555      C1556   1.354       .  D
C1555      H1567   1.086   1_655  S
C1556      C1557   1.490   1_655  S
C1556      H1568   1.086       .  S
C1557      C1558   1.410       .  A
C1557      C1562   1.404       .  A
C1558      C1559   1.405       .  A
C1558      H1569   1.084       .  S
C1559      C1560   1.401       .  A
C1559      H1570   1.083       .  S
C1560      C1561   1.407       .  A
C1561      C1562   1.395       .  A
C1561      H1571   1.085       .  S
C1562      H1572   1.082       .  S
C1573      C1574   1.401       .  A
C1573      C1578   1.409       .  A
C1574      C1575   1.407       .  A
C1574      H1587   1.083       .  S
C1575      C1576   1.412       .  A
C1575      H1588   1.083       .  S
C1576      C1577   1.405       .  A
C1576      C1579   1.497       .  S
C1577      C1578   1.396       .  A
C1577      H1589   1.080       .  S
C1578      H1590   1.084       .  S
C1579      C1580   1.357       .  D
C1579      H1591   1.085       .  S
C1580      C1581   1.496       .  S
C1580      H1592   1.084       .  S
C1581      C1582   1.411       .  A
C1581      C1586   1.405       .  A
C1582      C1583   1.407       .  A
C1582      H1593   1.084       .  S
C1583      C1584   1.403       .  A
C1583      H1594   1.082       .  S
C1584      C1585   1.408       .  A
C1585      C1586   1.395       .  A
C1585      H1595   1.084       .  S
C1586      H1596   1.080       .  S
C1597      C1598   1.406       .  A
C1597      C1602   1.409       .  A
C1598      C1599   1.405       .  A
C1598      H1611   1.083       .  S
C1599      C1600   1.407       .  A
C1599      H1612   1.082       .  S
C1600      C1601   1.406       .  A
C1600      C1603   1.494       .  S
C1601      C1602   1.400       .  A
C1601      H1613   1.083       .  S
C1602      H1614   1.082       .  S
C1603      C1604   1.352       .  D
C1603      H1615   1.084       .  S
C1604      C1605   1.494       .  S
C1604      H1616   1.084       .  S
C1605      C1606   1.407       .  A
C1605      C1610   1.407       .  A
C1606      C1607   1.404       .  A
C1606      H1617   1.082       .  S
C1607      C1608   1.405       .  A
C1607      H1618   1.083       .  S
C1608      C1609   1.408       .  A
C1609      C1610   1.401       .  A
C1609      H1619   1.082       .  S
C1610      H1620   1.083       .  S
C1621      C1622   1.407       .  A
C1621      C1626   1.404       .  A
C1622      C1623   1.397       .  A
C1622      H1635   1.083       .  S
C1623      C1624   1.402       .  A
C1623      H1636   1.084       .  S
C1624      C1625   1.408       .  A
C1624      C1627   1.483       .  S
C1625      C1626   1.396       .  A
C1625      H1637   1.081       .  S
C1626      H1638   1.083       .  S
C1627      C1628   1.345       .  D
C1627      H1639   1.086       .  S
C1628      C1629   1.481       .  S
C1628      H1640   1.086       .  S
C1629      C1630   1.401       .  A
C1629      C1634   1.408       .  A
C1630      C1631   1.393       .  A
C1630      H1641   1.084       .  S
C1631      C1632   1.405       .  A
C1631      H1642   1.083       .  S
C1632      C2011   1.480   1_554  S
C1632      C1633   1.406       .  A
C1633      C1634   1.400       .  A
C1633      H3335   1.083       .  S
C1634      H1644   1.081       .  S
H1643      C3325   1.084       .  S
C1645      C1646   1.403       .  A
C1645      C1650   1.407       .  A
C1646      C1647   1.395       .  A
C1646      H3351   1.083       .  S
C1647      C1648   1.404       .  A
C1647      H1660   1.083       .  S
C1648      C1649   1.410       .  A
C1648      C1651   1.491       .  S
C1649      C1650   1.406       .  A
C1649      H1661   1.082       .  S
C1650      H1662   1.083       .  S
C1651      C1652   1.353       .  D
C1651      H1663   1.081       .  S
C1652      C1653   1.500       .  S
C1652      H1664   1.085       .  S
C1653      C1654   1.410       .  A
C1653      C1658   1.407       .  A
C1654      C1655   1.408       .  A
C1654      H1665   1.083       .  S
C1655      C1656   1.407       .  A
C1655      H1666   1.083       .  S
C1656      C1657   1.408       .  A
C1657      C1658   1.394       .  A
C1657      H1667   1.083       .  S
C1658      H1668   1.079       .  S
H1659      C3338   1.083       .  S
C1669      C1670   1.406       .  A
C1669      C1674   1.406       .  A
C1670      C1671   1.400       .  A
C1670      H1683   1.083       .  S
C1671      C1672   1.403       .  A
C1671      H1684   1.082       .  S
C1672      C1673   1.406       .  A
C1672      C1675   1.484       .  S
C1673      C1674   1.393       .  A
C1673      H1685   1.083       .  S
C1674      H1686   1.082       .  S
C1675      C1676   1.348       .  D
C1675      H1687   1.084       .  S
C1676      C1677   1.482       .  S
C1676      H1688   1.084       .  S
C1677      C1678   1.402       .  A
C1677      C1682   1.407       .  A
C1678      C1679   1.395       .  A
C1678      H1689   1.083       .  S
C1679      C1680   1.405       .  A
C1679      H1690   1.084       .  S
C1680      C1681   1.407       .  A
C1681      C1682   1.399       .  A
C1681      H1691   1.082       .  S
C1682      H1692   1.082       .  S
Fe1693     O1709   2.041       .  S
Fe1693     O1699   2.070       .  S
Fe1693     O1706   2.072       .  S
Fe1693     O1698   2.043       .  S
Fe1693     O1704   1.957       .  S
Fe1694     O1697   2.018       .  S
Fe1694     O1701   2.117       .  S
Fe1694     O1705   2.039       .  S
Fe1694     O1710   2.107       .  S
Fe1694     O1704   1.954       .  S
Fe1695     O1713   2.113       .  S
Fe1695     O1700   2.033       .  S
Fe1695     O1707   2.044       .  S
Fe1695     O1696   2.121       .  S
Fe1695     O1704   1.954       .  S
O1696      C1703   1.285       .  A
O1697      C1711   1.260       .  A
O1698      C1703   1.273       .  A
O1699      C1702   1.265       .  A
O1700      C1712   1.264       .  A
O1701      C1714   1.284       .  A
C1702      O1707   1.261       .  A
C1702      C3361   1.477       .  S
C1703      C3289   1.489       .  S
O1705      C1708   1.260       .  A
O1706      C1708   1.265       .  A
C1708      C3313   1.478       .  S
O1709      C1714   1.273       .  A
O1710      C1712   1.277       .  A
C1711      O1713   1.277       .  A
C1711      C3252   1.479       .  S
C1712      C3265   1.484       .  S
C1714      C3348   1.490       .  S
Fe1715     O1731   2.043       .  S
Fe1715     O1721   2.079       .  S
Fe1715     O1728   2.072   1_655  S
Fe1715     O1720   2.045   1_655  S
Fe1715     O1726   1.961       .  S
Fe1716     O1719   2.024   1_455  S
Fe1716     O1723   2.115   1_455  S
Fe1716     O1727   2.044       .  S
Fe1716     O1732   2.111       .  S
Fe1716     O1726   1.957   1_455  S
Fe1717     O1735   2.121       .  S
Fe1717     O1722   2.030   1_655  S
Fe1717     O1729   2.049       .  S
Fe1717     O1718   2.127   1_655  S
Fe1717     O1726   1.957       .  S
O1718      C1725   1.284       .  A
O1719      C1733   1.260       .  A
O1720      C1725   1.270       .  A
O1721      C1724   1.268       .  A
O1722      C1734   1.265       .  A
O1723      C1736   1.283       .  A
C1724      O1729   1.264       .  A
C1724      C3228   1.481       .  S
C1725      C3145   1.494       .  S
O1727      C1730   1.261       .  A
O1728      C1730   1.266       .  A
C1730      C3180   1.479       .  S
O1731      C1736   1.272       .  A
O1732      C1734   1.279       .  A
C1733      O1735   1.278       .  A
C1733      C3132   1.483       .  S
C1734      C3276   1.484       .  S
C1736      C3193   1.488       .  S
Fe1737     O1753   2.048       .  S
Fe1737     O1743   2.074       .  S
Fe1737     O1750   2.072       .  S
Fe1737     O1742   2.049       .  S
Fe1737     O1748   1.969       .  S
Fe1738     O1741   2.030       .  S
Fe1738     O1745   2.116       .  S
Fe1738     O1749   2.047       .  S
Fe1738     O1754   2.116       .  S
Fe1738     O1748   1.969       .  S
Fe1739     O1757   2.106       .  S
Fe1739     O1744   2.025       .  S
Fe1739     O1748   1.969       .  S
O1740      C1747   1.281       .  A
O1741      C1755   1.262       .  A
O1744      C1756   1.262       .  A
O1745      C1758   1.282       .  A
C1746      O1751   1.262   1_554  A
C1746      C3108   1.481   1_554  S
C1747      C3036   1.490       .  S
O1749      C1752   1.263       .  A
O1750      C1752   1.267       .  A
C1752      C3049   1.481       .  S
O1753      C1758   1.271       .  A
O1754      C1756   1.278       .  A
C1755      O1757   1.275       .  A
C1755      C3241   1.477       .  S
C1756      C3121   1.485       .  S
C1758      C3073   1.495       .  S
Fe1759     O1775   2.041       .  S
Fe1759     O1765   2.083       .  S
Fe1759     O1772   2.087       .  S
Fe1759     O1764   2.050       .  S
Fe1759     O1770   1.946       .  S
Fe1760     O1763   2.054       .  S
Fe1760     O1767   2.095       .  S
Fe1760     O1771   2.082       .  S
Fe1760     O1776   2.105       .  S
Fe1760     O1770   1.955       .  S
Fe1761     O1779   2.097       .  S
Fe1761     O1766   2.048       .  S
Fe1761     O1773   2.072       .  S
Fe1761     O1762   2.090       .  S
Fe1761     O1770   1.954       .  S
O1762      C1769   1.276       .  A
O1763      C1777   1.268       .  A
O1764      C1769   1.270       .  A
O1765      C1768   1.272       .  A
O1766      C1778   1.268       .  A
O1767      C1780   1.276       .  A
C1768      O1773   1.271       .  A
C1768      C3084   1.490       .  S
C1769      C3097   1.482       .  S
O1771      C1774   1.273       .  A
O1772      C1774   1.273       .  A
C1774      C2977   1.494       .  S
O1775      C1780   1.268       .  A
O1776      C1778   1.277       .  A
C1777      O1779   1.275       .  A
C1777      C2929   1.474       .  S
C1778      C3001   1.489       .  S
C1780      C2953   1.481       .  S
Fe1781     O1797   2.046       .  S
Fe1781     O1787   2.068       .  S
Fe1781     O1794   2.071       .  S
Fe1781     O1786   2.049       .  S
Fe1781     O1792   1.951       .  S
Fe1782     O1785   2.041       .  S
Fe1782     O1789   2.085       .  S
Fe1782     O1793   2.072       .  S
Fe1782     O1798   2.099       .  S
Fe1782     O1792   1.961       .  S
Fe1783     O1801   2.090       .  S
Fe1783     O1788   2.051       .  S
Fe1783     O1795   2.072       .  S
Fe1783     O1784   2.077       .  S
Fe1783     O1792   1.963       .  S
O1784      C1791   1.273       .  A
O1785      C1799   1.267       .  A
O1786      C1791   1.269       .  A
O1788      C1800   1.268       .  A
O1789      C1802   1.274       .  A
C1790      C3337   1.481       .  S
C1791      C3372   1.476       .  S
O1793      C1796   1.271       .  A
O1794      C1796   1.270       .  A
C1796      C2916   1.486       .  S
O1797      C1802   1.268       .  A
O1798      C1800   1.275       .  A
C1799      O1801   1.273       .  A
C1800      C3012   1.481       .  S
Fe1803     O1819   2.051   1_655  S
Fe1803     O1809   2.077       .  S
Fe1803     O1816   2.083   1_655  S
Fe1803     O1808   2.058       .  S
Fe1803     O1814   1.953       .  S
Fe1804     O1807   2.047       .  S
Fe1804     O1811   2.085       .  S
Fe1804     O1815   2.072       .  S
Fe1804     O1820   2.094       .  S
Fe1804     O1814   1.956   1_455  S
Fe1805     O1823   2.090       .  S
Fe1805     O1810   2.051       .  S
Fe1805     O1817   2.072       .  S
Fe1805     O1806   2.072       .  S
Fe1805     O1814   1.960       .  S
O1806      C1813   1.272       .  A
O1807      C1821   1.268   1_455  A
O1808      C1813   1.271       .  A
O1809      C1812   1.271       .  A
O1810      C1822   1.267       .  A
O1811      C1824   1.275       .  A
C1812      O1817   1.271       .  A
C1812      C2785   1.485       .  S
C1813      C2772   1.479       .  S
O1815      C1818   1.271       .  A
O1816      C1818   1.271       .  A
C1818      C2833   1.492       .  S
O1819      C1824   1.270       .  A
O1820      C1822   1.274   1_455  A
C1821      O1823   1.274       .  A
C1821      C2857   1.484   1_655  S
C1822      C2940   1.473       .  S
C1824      C2809   1.481       .  S
Fe1825     O1841   2.043       .  S
Fe1825     O1831   2.069       .  S
Fe1825     O1838   2.079       .  S
Fe1825     O1830   2.045       .  S
Fe1825     O1836   1.963       .  S
Fe1826     O1829   2.024       .  S
Fe1826     O1833   2.122       .  S
Fe1826     O1837   2.045       .  S
Fe1826     O1842   2.119       .  S
Fe1826     O1836   1.965       .  S
Fe1827     O1845   2.107       .  S
Fe1827     O1832   2.026       .  S
Fe1827     O1839   2.047       .  S
Fe1827     O1828   2.110       .  S
Fe1827     O1836   1.965       .  S
O1828      C1835   1.282       .  A
O1829      C1843   1.261       .  A
O1830      C1835   1.272       .  A
O1831      C1834   1.266       .  A
O1832      C1844   1.262       .  A
O1833      C1846   1.284       .  A
C1834      O1839   1.262       .  A
C1834      C2700   1.480       .  S
C1835      C2905   1.488       .  S
O1837      C1840   1.262       .  A
O1838      C1840   1.267       .  A
C1840      C2892   1.484       .  S
O1841      C1846   1.271       .  A
O1842      C1844   1.279       .  A
C1843      O1845   1.276       .  A
C1843      C2737   1.479       .  S
C1844      C2713   1.482       .  S
C1846      C2665   1.490       .  S
Fe1847     O1863   2.048       .  S
Fe1847     O1853   2.075       .  S
Fe1847     O1860   2.077   1_565  S
Fe1847     O1852   2.049   1_565  S
Fe1847     O1858   1.959       .  S
Fe1848     O1851   2.029   1_545  S
Fe1848     O1855   2.123   1_545  S
Fe1848     O1859   2.048       .  S
Fe1848     O1864   2.118       .  S
Fe1848     O1858   1.958   1_545  S
Fe1849     O1867   2.121       .  S
Fe1849     O1854   2.026   1_565  S
Fe1849     O1861   2.047       .  S
Fe1849     O1850   2.124   1_565  S
Fe1849     O1858   1.955       .  S
O1850      C1857   1.286       .  A
O1851      C1865   1.264       .  A
O1852      C1857   1.274       .  A
O1853      C1856   1.266       .  A
O1854      C1866   1.261       .  A
O1855      C1868   1.284       .  A
C1856      O1861   1.262       .  A
C1856      C2820   1.481       .  S
C1857      C2628   1.495       .  S
O1859      C1862   1.263       .  A
O1860      C1862   1.268       .  A
C1862      C2641   1.481       .  S
O1863      C1868   1.272       .  A
O1864      C1866   1.278       .  A
C1865      O1867   1.280       .  A
C1865      C2724   1.486       .  S
C1866      C2593   1.483       .  S
C1868      C2844   1.489       .  S
Fe1869     O1885   2.036       .  S
Fe1869     O1875   2.066       .  S
Fe1869     O1882   2.067       .  S
Fe1869     O1874   2.040       .  S
Fe1869     O1880   1.966       .  S
Fe1870     O1873   2.032       .  S
Fe1870     O1877   2.117       .  S
Fe1870     O1881   2.053       .  S
Fe1870     O1886   2.115       .  S
Fe1870     O1880   1.967       .  S
Fe1871     O1889   2.104       .  S
Fe1871     O1876   2.015       .  S
Fe1871     O1880   1.964       .  S
O1872      C1879   1.281       .  A
O1873      C1887   1.264       .  A
O1876      C1888   1.259       .  A
O1877      C1890   1.282       .  A
C1878      O1883   1.260       .  A
C1878      C2521   1.477       .  S
C1879      C2556   1.486       .  S
O1881      C1884   1.264       .  A
O1882      C1884   1.266       .  A
C1884      C2580   1.479       .  S
O1885      C1890   1.269       .  A
O1886      C1888   1.277       .  A
C1887      O1889   1.276       .  A
C1887      C2748   1.480       .  S
C1888      C2604   1.479       .  S
C1890      C2497   1.490       .  S
Fe1891     O1907   2.050   1_565  S
Fe1891     O1897   2.068       .  S
Fe1891     O1904   2.068   1_565  S
Fe1891     O1896   2.050       .  S
Fe1891     O1902   1.950       .  S
Fe1892     O1895   2.050       .  S
Fe1892     O1899   2.087       .  S
Fe1892     O1903   2.081       .  S
Fe1892     O1908   2.095       .  S
Fe1892     O1902   1.959   1_545  S
Fe1893     O1911   2.093       .  S
Fe1893     O1898   2.048       .  S
Fe1893     O1905   2.075       .  S
Fe1893     O1894   2.085       .  S
Fe1893     O1902   1.959       .  S
O1894      C1901   1.274       .  A
O1895      C1909   1.268   1_545  A
O1896      C1901   1.269       .  A
O1897      C1900   1.270       .  A
O1898      C1910   1.269       .  A
O1899      C1912   1.277       .  A
C1900      O1905   1.271       .  A
C1900      C2425   1.488       .  S
C1901      C2412   1.480       .  S
O1903      C1906   1.270       .  A
O1904      C1906   1.269       .  A
C1906      C3204   1.491       .  S
O1907      C1912   1.270       .  A
O1908      C1910   1.276   1_545  A
C1909      O1911   1.273       .  A
C1909      C2449   1.488   1_565  S
C1910      C2473   1.473       .  S
C1912      C3217   1.482       .  S
Fe1913     O1929   2.038       .  S
Fe1913     O1919   2.078       .  S
Fe1913     O1926   2.083       .  S
Fe1913     O1918   2.048       .  S
Fe1913     O1924   1.947       .  S
Fe1914     O1917   2.041       .  S
Fe1914     O1921   2.106       .  S
Fe1914     O1925   2.071       .  S
Fe1914     O1930   2.107       .  S
Fe1914     O1924   1.945       .  S
Fe1915     O1933   2.099       .  S
Fe1915     O1920   2.041       .  S
Fe1915     O1927   2.072       .  S
Fe1915     O1916   2.097       .  S
Fe1915     O1924   1.946       .  S
O1916      C1923   1.280       .  A
O1917      C1931   1.267       .  A
O1918      C1923   1.274       .  A
O1920      C1932   1.268       .  A
O1921      C1934   1.282       .  A
C1922      C2676   1.492       .  S
C1923      C2689   1.480       .  S
O1925      C1928   1.266       .  A
O1926      C1928   1.268       .  A
C1928      C2377   1.485       .  S
O1929      C1934   1.272       .  A
O1930      C1932   1.278       .  A
C1931      O1933   1.276       .  A
C1932      C2340   1.487       .  S
Fe1935     O1951   2.047       .  S
Fe1935     O1941   2.068       .  S
Fe1935     O1948   2.066       .  S
Fe1935     O1940   2.050       .  S
Fe1935     O1946   1.954       .  S
Fe1936     O1939   2.048       .  S
Fe1936     O1943   2.081       .  S
Fe1936     O1947   2.076       .  S
Fe1936     O1952   2.094       .  S
Fe1936     O1946   1.966       .  S
Fe1937     O1955   2.098       .  S
Fe1937     O1942   2.052       .  S
Fe1937     O1949   2.084       .  S
Fe1937     O1938   2.085       .  S
Fe1937     O1946   1.962       .  S
O1938      C1945   1.274       .  A
O1939      C1953   1.267       .  A
O1940      C1945   1.269       .  A
O1941      C1944   1.270       .  A
O1942      C1954   1.268       .  A
O1943      C1956   1.273       .  A
C1944      O1949   1.273       .  A
C1944      C3025   1.493       .  S
C1945      C3060   1.481       .  S
O1947      C1950   1.271       .  A
O1948      C1950   1.270       .  A
C1950      C2508   1.484       .  S
O1951      C1956   1.269       .  A
O1952      C1954   1.274       .  A
C1953      O1955   1.275       .  A
C1953      C2329   1.475       .  S
C1954      C2460   1.476       .  S
C1956      C2532   1.479       .  S
Fe1957     O1973   2.060       .  S
Fe1957     O1963   2.084       .  S
Fe1957     O1970   2.083       .  S
Fe1957     O1962   2.068       .  S
Fe1957     O1968   1.944       .  S
Fe1958     O1961   2.058       .  S
Fe1958     O1965   2.089       .  S
Fe1958     O1969   2.080       .  S
Fe1958     O1974   2.107       .  S
Fe1958     O1968   1.949       .  S
Fe1959     O1977   2.089       .  S
Fe1959     O1964   2.047       .  S
Fe1959     O1971   2.073       .  S
Fe1959     O1960   2.071       .  S
Fe1959     O1968   1.945       .  S
O1960      C1967   1.272       .  A
O1961      C1975   1.268       .  A
O1962      C1967   1.272       .  A
O1963      C1966   1.273       .  A
O1964      C1976   1.268       .  A
O1965      C1978   1.277       .  A
C1966      O1971   1.272       .  A
C1966      C2545   1.491       .  S
C1967      C2569   1.482       .  S
O1969      C1972   1.273       .  A
O1970      C1972   1.273       .  A
C1972      C2268   1.494       .  S
O1973      C1978   1.272       .  A
O1974      C1976   1.277       .  A
C1975      O1977   1.273       .  A
C1975      C2305   1.477       .  S
C1976      C2281   1.481       .  S
C1978      C2244   1.484       .  S
Fe1979     O1995   2.051       .  S
Fe1979     O1985   2.082       .  S
Fe1979     O1992   2.079       .  S
Fe1979     O1984   2.036       .  S
Fe1979     O1990   1.956       .  S
Fe1980     O1983   2.049       .  S
Fe1980     O1987   2.087       .  S
Fe1980     O1991   2.078       .  S
Fe1980     O1996   2.096       .  S
Fe1980     O1990   1.961       .  S
Fe1981     O1999   2.100       .  S
Fe1981     O1986   2.055       .  S
Fe1981     O1993   2.080       .  S
Fe1981     O1982   2.095       .  S
Fe1981     O1990   1.962       .  S
O1982      C1989   1.278       .  A
O1983      C1997   1.270       .  A
O1984      C1989   1.268       .  A
O1985      C1988   1.270       .  A
O1986      C1998   1.269       .  A
O1987      C2000   1.275       .  A
C1988      O1993   1.270       .  A
C1988      C3156   1.493       .  S
C1989      C3169   1.479       .  S
O1991      C1994   1.271       .  A
O1992      C1994   1.271       .  A
C1994      C2617   1.492       .  S
O1995      C2000   1.270       .  A
O1996      C1998   1.275       .  A
C1997      O1999   1.277       .  A
C1997      C2292   1.485       .  S
C1998      C2220   1.490       .  S
C2000      C2652   1.482       .  S
Fe2001     O2017   2.043       .  S
Fe2001     O2007   2.085       .  S
Fe2001     O2014   2.072       .  S
Fe2001     O2006   2.042       .  S
Fe2001     O2012   1.944       .  S
Fe2002     O2005   2.059       .  S
Fe2002     O2009   2.093       .  S
Fe2002     O2013   2.084       .  S
Fe2002     O2018   2.113       .  S
Fe2002     O2012   1.955       .  S
Fe2003     O2021   2.089       .  S
Fe2003     O2008   2.046       .  S
Fe2003     O2015   2.074       .  S
Fe2003     O2004   2.089       .  S
Fe2003     O2012   1.949       .  S
O2004      C2011   1.273       .  A
O2005      C2019   1.267       .  A
O2006      C2011   1.266       .  A
O2007      C2010   1.273       .  A
O2008      C2020   1.269       .  A
O2009      C2022   1.277       .  A
C2010      O2015   1.272       .  A
C2010      C3300   1.485       .  S
C2016      C2196   1.497       .  S
O2017      C2022   1.269       .  A
O2018      C2020   1.279       .  A
C2019      O2021   1.273       .  A
C2019      C2316   1.480       .  S
C2022      C2172   1.478       .  S
Fe2023     O2039   2.038       .  S
Fe2023     O2029   2.073       .  S
Fe2023     O2036   2.077       .  S
Fe2023     O2028   2.041       .  S
Fe2023     O2034   1.964       .  S
Fe2024     O2027   2.029       .  S
Fe2024     O2031   2.126       .  S
Fe2024     O2035   2.043       .  S
Fe2024     O2040   2.115       .  S
Fe2024     O2034   1.962       .  S
Fe2025     O2043   2.125       .  S
Fe2025     O2030   2.026       .  S
Fe2025     O2037   2.045       .  S
Fe2025     O2026   2.131       .  S
Fe2025     O2034   1.961       .  S
O2026      C2033   1.287       .  A
O2027      C2041   1.264       .  A
O2028      C2033   1.272       .  A
O2029      C2032   1.266       .  A
O2030      C2042   1.260       .  A
O2031      C2044   1.284       .  A
C2032      O2037   1.261       .  A
C2032      C2353   1.481       .  S
C2033      C2185   1.496       .  S
O2035      C2038   1.261       .  A
O2036      C2038   1.267       .  A
C2038      C2161   1.477       .  S
O2039      C2044   1.270       .  A
O2040      C2042   1.276       .  A
C2041      O2043   1.280       .  A
C2041      C2113   1.488       .  S
C2042      C2137   1.478       .  S
C2044      C2388   1.494       .  S
Fe2045     O2061   2.050       .  S
Fe2045     O2051   2.073       .  S
Fe2045     O2058   2.075       .  S
Fe2045     O2050   2.046       .  S
Fe2045     O2056   1.967       .  S
Fe2046     O2049   2.033       .  S
Fe2046     O2062   2.110       .  S
Fe2046     O2056   1.965       .  S
Fe2047     O2065   2.107       .  S
Fe2047     O2052   2.028       .  S
Fe2047     O2059   2.040       .  S
Fe2047     O2048   2.119       .  S
Fe2047     O2056   1.966       .  S
O2048      C2055   1.283       .  A
O2049      C2063   1.264       .  A
O2050      C2055   1.273       .  A
O2051      C2054   1.266       .  A
O2052      C2064   1.261       .  A
O2053      C2066   1.285       .  A
C2054      O2059   1.259       .  A
C2054      C2964   1.481       .  S
C2055      C2257   1.486       .  S
O2057      C2060   1.260       .  A
C2060      C2233   1.480   1_554  S
O2062      C2064   1.275       .  A
C2063      O2065   1.277       .  A
C2063      C2089   1.489       .  S
C2064      C2148   1.477       .  S
C2066      C2988   1.495       .  S
Fe2067     O2083   2.043       .  S
Fe2067     O2073   2.064       .  S
Fe2067     O2080   2.075       .  S
Fe2067     O2072   2.043       .  S
Fe2067     O2078   1.963       .  S
Fe2068     O2071   2.026       .  S
Fe2068     O2075   2.131       .  S
Fe2068     O2079   2.049       .  S
Fe2068     O2084   2.126       .  S
Fe2068     O2078   1.965       .  S
Fe2069     O2087   2.108       .  S
Fe2069     O2074   2.024       .  S
Fe2069     O2081   2.050       .  S
Fe2069     O2070   2.110       .  S
Fe2069     O2078   1.964       .  S
O2070      C2077   1.282       .  A
O2071      C2085   1.262       .  A
O2072      C2077   1.272       .  A
O2073      C2076   1.265       .  A
O2074      C2086   1.261       .  A
O2075      C2088   1.285       .  A
C2076      O2081   1.262       .  A
C2076      C2761   1.479       .  S
C2077      C2436   1.481       .  S
O2079      C2082   1.263       .  A
O2080      C2082   1.267       .  A
C2082      C2401   1.483       .  S
O2083      C2088   1.271       .  A
O2084      C2086   1.280       .  A
C2085      O2087   1.276       .  A
C2085      C2100   1.475       .  S
C2086      C2124   1.484       .  S
C2088      C2796   1.491       .  S
C2089      C2090   1.405       .  A
C2089      C2094   1.410       .  A
C2090      H2103   1.083       .  S
C2091      C2092   1.411   1_554  A
C2091      H2104   1.082       .  S
C2092      C2093   1.402       .  A
C2092      C2095   1.493       .  S
C2093      H2105   1.082       .  S
C2094      H2106   1.083       .  S
C2095      C2096   1.356       .  D
C2095      H2107   1.083       .  S
C2096      C2097   1.493       .  S
C2096      H2108   1.084       .  S
C2097      C2098   1.411       .  A
C2097      C2102   1.405       .  A
C2098      C2099   1.405       .  A
C2098      H2109   1.083       .  S
C2099      C2100   1.401       .  A
C2099      H2110   1.083       .  S
C2100      C2101   1.406       .  A
C2101      C2102   1.396       .  A
C2101      H2111   1.084       .  S
C2102      H2112   1.080       .  S
C2113      C2114   1.408       .  A
C2113      C2118   1.405       .  A
C2114      C2115   1.394       .  A
C2114      H2127   1.084       .  S
C2115      C2116   1.400       .  A
C2115      H2128   1.084       .  S
C2116      C2117   1.415       .  A
C2116      C2119   1.496       .  S
C2117      C2118   1.413       .  A
C2117      H2129   1.081       .  S
C2118      H2130   1.083       .  S
C2119      C2120   1.345       .  D
C2119      H2131   1.087       .  S
C2120      C2121   1.497       .  S
C2120      H2132   1.087       .  S
C2121      C2122   1.401       .  A
C2121      C2126   1.414       .  A
C2122      C2123   1.397       .  A
C2122      H2133   1.084       .  S
C2123      C2124   1.408       .  A
C2123      H2134   1.083       .  S
C2124      C2125   1.404       .  A
C2125      C2126   1.410       .  A
C2125      H2135   1.083       .  S
C2126      H2136   1.081       .  S
C2137      C2138   1.406       .  A
C2137      C2142   1.404       .  A
C2138      C2139   1.396       .  A
C2138      H2151   1.084       .  S
C2139      C2140   1.401       .  A
C2139      H2152   1.084       .  S
C2140      C2141   1.413       .  A
C2140      C2143   1.493       .  S
C2141      C2142   1.409       .  A
C2141      H2153   1.082       .  S
C2142      H2154   1.083       .  S
C2143      C2144   1.344       .  D
C2143      H2155   1.086       .  S
C2144      C2145   1.492       .  S
C2144      H2156   1.086       .  S
C2145      C2146   1.400       .  A
C2145      C2150   1.413       .  A
C2146      C2147   1.395       .  A
C2146      H2157   1.084       .  S
C2147      C2148   1.406       .  A
C2147      H2158   1.084       .  S
C2148      C2149   1.404       .  A
C2149      C2150   1.409       .  A
C2149      H2159   1.083       .  S
C2150      H2160   1.082       .  S
C2161      C2162   1.406       .  A
C2161      C2166   1.404       .  A
C2162      C2163   1.395       .  A
C2162      H2175   1.083       .  S
C2163      C2164   1.401       .  A
C2163      H2176   1.083       .  S
C2164      C2165   1.408       .  A
C2164      C2167   1.483       .  S
C2165      C2166   1.398       .  A
C2165      H2177   1.082       .  S
C2166      H2178   1.083       .  S
C2167      C2168   1.345       .  D
C2167      H2179   1.085       .  S
C2168      C2169   1.482       .  S
C2168      H2180   1.085       .  S
C2169      C2170   1.401       .  A
C2169      C2174   1.409       .  A
C2170      C2171   1.394       .  A
C2170      H2181   1.083       .  S
C2171      C2172   1.406       .  A
C2171      H2182   1.084       .  S
C2172      C2173   1.404       .  A
C2173      C2174   1.400       .  A
C2173      H2183   1.083       .  S
C2174      H2184   1.082       .  S
C2185      C2186   1.406       .  A
C2185      C2190   1.410       .  A
C2186      C2187   1.409       .  A
C2186      H2199   1.083       .  S
C2187      C2188   1.410       .  A
C2187      H2200   1.082       .  S
C2188      C2189   1.407       .  A
C2188      C2191   1.503       .  S
C2189      C2190   1.399       .  A
C2189      H2201   1.082       .  S
C2190      H2202   1.082       .  S
C2191      C2192   1.354       .  D
C2191      H2203   1.084       .  S
C2192      C2193   1.498       .  S
C2192      H2204   1.084       .  S
C2193      C2194   1.404       .  A
C2193      C2198   1.411       .  A
C2194      H2205   1.083       .  S
C2195      H2206   1.084       .  S
C2196      C2197   1.410       .  A
C2197      C2198   1.410       .  A
C2197      H2207   1.083       .  S
C2198      H2208   1.082       .  S
C2209      C2214   1.408       .  A
C2210      H2223   1.084       .  S
C2211      C2212   1.405       .  A
C2212      C2213   1.410       .  A
C2212      C2215   1.493       .  S
C2213      C2214   1.407       .  A
C2213      H2225   1.082       .  S
C2214      H2226   1.083       .  S
C2215      C2216   1.350       .  D
C2215      H2227   1.087       .  S
C2216      C2217   1.491       .  S
C2216      H2228   1.085       .  S
C2217      C2218   1.405       .  A
C2217      C2222   1.405       .  A
C2218      C2219   1.407       .  A
C2218      H2229   1.083       .  S
C2219      C2220   1.409       .  A
C2219      H2230   1.083       .  S
C2220      C2221   1.407       .  A
C2221      C2222   1.397       .  A
C2221      H2231   1.083       .  S
C2222      H2232   1.083       .  S
C2233      C2234   1.404       .  A
C2233      C2238   1.406       .  A
C2234      C2235   1.400       .  A
C2234      H2247   1.083       .  S
C2235      C2236   1.405       .  A
C2235      H2248   1.083       .  S
C2236      C2237   1.407       .  A
C2236      C2239   1.489       .  S
C2237      C2238   1.396       .  A
C2237      H2249   1.082       .  S
C2238      H2250   1.083       .  S
C2239      C2240   1.350       .  D
C2239      H2251   1.083       .  S
C2240      C2241   1.491       .  S
C2240      H2252   1.085       .  S
C2241      C2242   1.405       .  A
C2241      C2246   1.409       .  A
C2242      C2243   1.396       .  A
C2242      H2253   1.084       .  S
C2243      C2244   1.405       .  A
C2243      H2254   1.083       .  S
C2244      C2245   1.406       .  A
C2245      C2246   1.400       .  A
C2245      H2255   1.083       .  S
C2246      H2256   1.079       .  S
C2257      C2258   1.406       .  A
C2257      C2262   1.407       .  A
C2258      C2259   1.394       .  A
C2258      H2271   1.084       .  S
C2259      C2260   1.400       .  A
C2259      H2272   1.083       .  S
C2260      C2261   1.412       .  A
C2260      C2263   1.491       .  S
C2261      C2262   1.411       .  A
C2261      H2273   1.083       .  S
C2262      H2274   1.082       .  S
C2263      C2264   1.347       .  D
C2263      H2275   1.085       .  S
C2264      C2265   1.496       .  S
C2264      H2276   1.086       .  S
C2265      C2266   1.402       .  A
C2265      C2270   1.411       .  A
C2266      C2267   1.400       .  A
C2266      H2277   1.083       .  S
C2267      C2268   1.409       .  A
C2267      H2278   1.083       .  S
C2268      C2269   1.407       .  A
C2269      C2270   1.406       .  A
C2269      H2279   1.082       .  S
C2270      H2280   1.082       .  S
C2281      C2282   1.403       .  A
C2281      C2286   1.407       .  A
C2282      C2283   1.396       .  A
C2282      H2295   1.083       .  S
C2283      C2284   1.405       .  A
C2283      H2296   1.084       .  S
C2284      C2285   1.409       .  A
C2284      C2287   1.491       .  S
C2285      C2286   1.405       .  A
C2285      H2297   1.080       .  S
C2286      H2298   1.084       .  S
C2287      C2288   1.350       .  D
C2287      H2299   1.088       .  S
C2288      C2289   1.488       .  S
C2288      H2300   1.084       .  S
C2289      C2290   1.405       .  A
C2289      C2294   1.404       .  A
C2290      C2291   1.406       .  A
C2290      H2301   1.083       .  S
C2291      C2292   1.408       .  A
C2291      H2302   1.083       .  S
C2292      C2293   1.406       .  A
C2293      C2294   1.394       .  A
C2293      H2303   1.083       .  S
C2294      H2304   1.083       .  S
C2305      C2306   1.406       .  A
C2305      C2310   1.404       .  A
C2306      C2307   1.400       .  A
C2306      H2319   1.084       .  S
C2307      C2308   1.403       .  A
C2307      H2320   1.083       .  S
C2308      C2309   1.407       .  A
C2308      C2311   1.484       .  S
C2309      C2310   1.400       .  A
C2309      H2321   1.083       .  S
C2310      H2322   1.083       .  S
C2311      C2312   1.343       .  D
C2311      H2323   1.087       .  S
C2312      C2313   1.483       .  S
C2312      H2324   1.087       .  S
C2313      C2314   1.401       .  A
C2313      C2318   1.407       .  A
C2314      C2315   1.399       .  A
C2314      H2325   1.083       .  S
C2315      C2316   1.406       .  A
C2315      H2326   1.084       .  S
C2316      C2317   1.405       .  A
C2317      C2318   1.402       .  A
C2317      H2327   1.083       .  S
C2318      H2328   1.083       .  S
C2329      C2330   1.401       .  A
C2329      C2334   1.406       .  A
C2330      C2331   1.396       .  A
C2330      H2343   1.084       .  S
C2331      C2332   1.406       .  A
C2331      H2344   1.083       .  S
C2332      C2333   1.410       .  A
C2332      C2335   1.492       .  S
C2333      C2334   1.405       .  A
C2333      H2345   1.081       .  S
C2334      H2346   1.083       .  S
C2335      C2336   1.351   1_545  D
C2335      H2347   1.087       .  S
C2336      C2337   1.489       .  S
C2336      H2348   1.084       .  S
C2337      C2338   1.406       .  A
C2337      C2342   1.404       .  A
C2338      C2339   1.408       .  A
C2338      H2349   1.083       .  S
C2339      C2340   1.408       .  A
C2339      H2350   1.083       .  S
C2340      C2341   1.408       .  A
C2341      C2342   1.393       .  A
C2341      H2351   1.083       .  S
C2342      H2352   1.083       .  S
C2353      C2354   1.407       .  A
C2353      C2358   1.405       .  A
C2354      C2355   1.396       .  A
C2354      H2367   1.083       .  S
C2355      C2356   1.402       .  A
C2355      H2368   1.083       .  S
C2356      C2357   1.408       .  A
C2356      C2359   1.485       .  S
C2357      C2358   1.397       .  A
C2357      H2369   1.081       .  S
C2358      H2370   1.083       .  S
C2359      C2360   1.346       .  D
C2359      H2371   1.085       .  S
C2360      C2361   1.483       .  S
C2360      H2372   1.084       .  S
C2361      C2362   1.401       .  A
C2361      C2366   1.408       .  A
C2362      C2363   1.394       .  A
C2362      H2373   1.083       .  S
C2363      C2364   1.407       .  A
C2363      H2374   1.083       .  S
C2364      C2365   1.406       .  A
C2365      C2366   1.400       .  A
C2365      H2375   1.083       .  S
C2366      H2376   1.082       .  S
C2377      C2378   1.404       .  A
C2377      C2382   1.408       .  A
C2378      C2379   1.403       .  A
C2378      H2391   1.084       .  S
C2379      C2380   1.407       .  A
C2379      H2392   1.082       .  S
C2380      C2381   1.406       .  A
C2380      C2383   1.492       .  S
C2381      C2382   1.401       .  A
C2381      H2393   1.083       .  S
C2382      H2394   1.082       .  S
C2383      C2384   1.353       .  D
C2383      H2395   1.085       .  S
C2384      C2385   1.494       .  S
C2384      H2396   1.084       .  S
C2385      C2386   1.408       .  A
C2385      C2390   1.403       .  A
C2386      C2387   1.408       .  A
C2386      H2397   1.082       .  S
C2387      C2388   1.407       .  A
C2387      H2398   1.083       .  S
C2388      C2389   1.410       .  A
C2389      C2390   1.396       .  A
C2389      H2399   1.082       .  S
C2390      H2400   1.083       .  S
C2401      C2402   1.407       .  A
C2401      C2406   1.406       .  A
C2402      C2403   1.400       .  A
C2402      H2415   1.083       .  S
C2403      C2404   1.404       .  A
C2403      H2416   1.083       .  S
C2404      C2405   1.407       .  A
C2404      C2407   1.487       .  S
C2405      C2406   1.396       .  A
C2405      H2417   1.082       .  S
C2406      H2418   1.083       .  S
C2407      H2419   1.084       .  S
C2408      C2409   1.483       .  S
C2408      H2420   1.085       .  S
C2409      C2410   1.402       .  A
C2409      C2414   1.407       .  A
C2410      C2411   1.397       .  A
C2410      H2421   1.083       .  S
C2411      C2412   1.406       .  A
C2411      H2422   1.084       .  S
C2412      C2413   1.406       .  A
C2413      C2414   1.396       .  A
C2413      H2423   1.082       .  S
C2414      H2424   1.082       .  S
C2425      C2426   1.406       .  A
C2425      C2430   1.407       .  A
C2426      C2427   1.405       .  A
C2426      H2439   1.083       .  S
C2427      C2428   1.407       .  A
C2427      H2440   1.083       .  S
C2428      C2429   1.407       .  A
C2428      C2431   1.494       .  S
C2429      C2430   1.395       .  A
C2429      H2441   1.081       .  S
C2430      H2442   1.083       .  S
C2431      C2432   1.350       .  D
C2431      H2443   1.085       .  S
C2432      C2433   1.489       .  S
C2432      H2444   1.084       .  S
C2433      C2434   1.403       .  A
C2433      C2438   1.410       .  A
C2434      C2435   1.395       .  A
C2434      H2445   1.083       .  S
C2435      C2436   1.404       .  A
C2435      H2446   1.084       .  S
C2436      C2437   1.406       .  A
C2437      C2438   1.405       .  A
C2437      H2447   1.083       .  S
C2438      H2448   1.082       .  S
C2449      C2450   1.409   1_545  A
C2449      C2454   1.407       .  A
C2450      C2451   1.406       .  A
C2450      H2463   1.083       .  S
C2451      C2452   1.405   1_565  A
C2451      H2464   1.083       .  S
C2452      C2453   1.404       .  A
C2452      C2455   1.489       .  S
C2453      C2454   1.394       .  A
C2453      H2465   1.084       .  S
C2454      H2466   1.082       .  S
C2455      C2456   1.350       .  D
C2455      H2467   1.083       .  S
C2456      C2457   1.491       .  S
C2456      H2468   1.086       .  S
C2457      C2458   1.406       .  A
C2457      C2462   1.410       .  A
C2458      C2459   1.396       .  A
C2458      H2469   1.082       .  S
C2459      C2460   1.401       .  A
C2459      H2470   1.084       .  S
C2460      C2461   1.406       .  A
C2461      C2462   1.405       .  A
C2461      H2471   1.083       .  S
C2462      H2472   1.081       .  S
C2473      C2474   1.405       .  A
C2473      C2478   1.401       .  A
C2474      C2475   1.402       .  A
C2474      H2487   1.083   1_565  S
C2475      C2476   1.409       .  A
C2475      H2488   1.081       .  S
C2476      C2477   1.405       .  A
C2476      C2479   1.489       .  S
C2477      C2478   1.395       .  A
C2477      H2489   1.083       .  S
C2478      H2490   1.084       .  S
C2479      C2480   1.349       .  D
C2479      H2491   1.088       .  S
C2480      C2481   1.484       .  S
C2480      H2492   1.083       .  S
C2481      C2486   1.403       .  A
C2482      C2483   1.393       .  A
C2482      H2493   1.083       .  S
C2483      H2494   1.083       .  S
C2484      C2485   1.409       .  A
C2485      C2486   1.404       .  A
C2485      H2495   1.083       .  S
C2486      H2496   1.083       .  S
C2497      C2498   1.407       .  A
C2497      C2502   1.408       .  A
C2498      C2499   1.407       .  A
C2498      H2511   1.082       .  S
C2499      C2500   1.407       .  A
C2499      H2512   1.083       .  S
C2500      C2501   1.406       .  A
C2500      C2503   1.494       .  S
C2501      C2502   1.394       .  A
C2501      H2513   1.081       .  S
C2502      H2514   1.083       .  S
C2503      C2504   1.350       .  D
C2503      H2515   1.086       .  S
C2504      C2505   1.488       .  S
C2504      H2516   1.086       .  S
C2505      C2506   1.402       .  A
C2505      C2510   1.409       .  A
C2506      C2507   1.394       .  A
C2506      H2517   1.084       .  S
C2507      C2508   1.405       .  A
C2507      H2518   1.083       .  S
C2508      C2509   1.407       .  A
C2509      C2510   1.407       .  A
C2509      H2519   1.083       .  S
C2510      H2520   1.082       .  S
C2521      C2522   1.407       .  A
C2521      C2526   1.404       .  A
C2522      C2523   1.396       .  A
C2522      H2535   1.083       .  S
C2523      C2524   1.401       .  A
C2523      H2536   1.084       .  S
C2524      C2525   1.407       .  A
C2524      C2527   1.480       .  S
C2525      C2526   1.394       .  A
C2525      H2537   1.082       .  S
C2527      C2528   1.345       .  D
C2527      H2539   1.084       .  S
C2528      C2529   1.480       .  S
C2528      H2540   1.085       .  S
C2529      C2530   1.401       .  A
C2529      C2534   1.408       .  A
C2530      C2531   1.392       .  A
C2530      H2541   1.083       .  S
C2531      C2532   1.405       .  A
C2531      H2542   1.083       .  S
C2532      C2533   1.407       .  A
C2533      C2534   1.399       .  A
C2533      H2543   1.083       .  S
C2534      H2544   1.081       .  S
C2545      C2546   1.407       .  A
C2545      C2550   1.407       .  A
C2546      C2547   1.406       .  A
C2546      H2559   1.083       .  S
C2547      C2548   1.407       .  A
C2547      H2560   1.083       .  S
C2548      C2549   1.408       .  A
C2548      C2551   1.498       .  S
C2549      C2550   1.397       .  A
C2549      H2561   1.081       .  S
C2550      H2562   1.083       .  S
C2551      C2552   1.351       .  D
C2551      H2563   1.085       .  S
C2552      C2553   1.493       .  S
C2552      H2564   1.084       .  S
C2553      C2554   1.403       .  A
C2553      C2558   1.411       .  A
C2554      C2555   1.394       .  A
C2554      H2565   1.084       .  S
C2555      C2556   1.405       .  A
C2556      C2557   1.407       .  A
C2557      C2558   1.409       .  A
C2557      H2567   1.083       .  S
C2558      H2568   1.081       .  S
C2569      C2570   1.406       .  A
C2569      C2574   1.406       .  A
C2570      C2571   1.391       .  A
C2570      H2583   1.083       .  S
C2571      C2572   1.400       .  A
C2571      H2584   1.084       .  S
C2572      C2573   1.409       .  A
C2572      C2575   1.482       .  S
C2573      C2574   1.402       .  A
C2573      H2585   1.081       .  S
C2574      H2586   1.083       .  S
C2575      C2576   1.345       .  D
C2575      H2587   1.086       .  S
C2576      C2577   1.484       .  S
C2576      H2588   1.085       .  S
C2577      C2578   1.401       .  A
C2577      C2582   1.408       .  A
C2578      C2579   1.398       .  A
C2578      H2589   1.083       .  S
C2579      C2580   1.407       .  A
C2579      H2590   1.083       .  S
C2580      C2581   1.404       .  A
C2581      C2582   1.396       .  A
C2581      H2591   1.083       .  S
C2582      H2592   1.082       .  S
C2593      C2594   1.402       .  A
C2593      C2598   1.408       .  A
C2594      C2595   1.407       .  A
C2594      H2607   1.083       .  S
C2595      C2596   1.412       .  A
C2595      H2608   1.083       .  S
C2596      C2597   1.406       .  A
C2596      C2599   1.498       .  S
C2597      C2598   1.397       .  A
C2597      H2609   1.080       .  S
C2598      H2610   1.084       .  S
C2599      C2600   1.358       .  D
C2599      H2611   1.085       .  S
C2600      C2601   1.497       .  S
C2600      H2612   1.084       .  S
C2601      C2606   1.404       .  A
C2602      C2603   1.407       .  A
C2602      H2613   1.083       .  S
C2603      C2604   1.402       .  A
C2603      H2614   1.083       .  S
C2605      C2606   1.395       .  A
C2605      H2615   1.084       .  S
C2606      H2616   1.081       .  S
C2617      C2618   1.406       .  A
C2617      C2622   1.409       .  A
C2618      C2619   1.398       .  A
C2618      H2631   1.083       .  S
C2619      C2620   1.404       .  A
C2619      H2632   1.083       .  S
C2620      C2621   1.410       .  A
C2620      C2623   1.496       .  S
C2621      C2622   1.409       .  A
C2621      H2633   1.082       .  S
C2622      H2634   1.083       .  S
C2623      H2635   1.084       .  S
C2624      C2625   1.501   1_554  S
C2624      H2636   1.086       .  S
C2625      C2626   1.408       .  A
C2625      C2630   1.408       .  A
C2626      C2627   1.407       .  A
C2626      H2637   1.083   1_556  S
C2627      C2628   1.407       .  A
C2627      H2638   1.083       .  S
C2628      C2629   1.409       .  A
C2629      C2630   1.400       .  A
C2629      H2639   1.083       .  S
C2630      H2640   1.082       .  S
C2641      C2642   1.405       .  A
C2641      C2646   1.407       .  A
C2642      C2643   1.397       .  A
C2642      H2655   1.084       .  S
C2643      C2644   1.403       .  A
C2643      H2656   1.082       .  S
C2644      C2645   1.407       .  A
C2644      C2647   1.484       .  S
C2645      C2646   1.397       .  A
C2645      H2657   1.082       .  S
C2646      H2658   1.082       .  S
C2647      C2648   1.348       .  D
C2647      H2659   1.083       .  S
C2648      C2649   1.486       .  S
C2648      H2660   1.084       .  S
C2649      C2650   1.403       .  A
C2649      C2654   1.407       .  A
C2650      C2651   1.398       .  A
C2650      H2661   1.083       .  S
C2651      C2652   1.406       .  A
C2651      H2662   1.083       .  S
C2652      C2653   1.406       .  A
C2653      C2654   1.397       .  A
C2653      H2663   1.082       .  S
C2654      H2664   1.081       .  S
C2665      C2666   1.409       .  A
C2665      C2670   1.406       .  A
C2666      C2667   1.396       .  A
C2666      H2679   1.084       .  S
C2667      C2668   1.400       .  A
C2667      H2680   1.083       .  S
C2668      C2669   1.412       .  A
C2668      C2671   1.493       .  S
C2669      C2670   1.409       .  A
C2669      H2681   1.082       .  S
C2670      H2682   1.083       .  S
C2671      C2672   1.347       .  D
C2671      H2683   1.086       .  S
C2672      C2673   1.494       .  S
C2672      H2684   1.086       .  S
C2673      C2674   1.402       .  A
C2673      C2678   1.411       .  A
C2674      C2675   1.397       .  A
C2674      H2685   1.083       .  S
C2675      C2676   1.407       .  A
C2676      C2677   1.408       .  A
C2677      C2678   1.408       .  A
C2677      H2687   1.083       .  S
C2678      H2688   1.082       .  S
C2689      C2690   1.405       .  A
C2689      C2694   1.405       .  A
C2690      C2691   1.397       .  A
C2690      H2703   1.084       .  S
C2691      C2692   1.403       .  A
C2691      H2704   1.083       .  S
C2692      C2693   1.408       .  A
C2692      C2695   1.485       .  S
C2693      C2694   1.396       .  A
C2693      H2705   1.082       .  S
C2694      H2706   1.082       .  S
C2695      C2696   1.347       .  D
C2695      H2707   1.083       .  S
C2696      C2697   1.485       .  S
C2696      H2708   1.084       .  S
C2697      C2698   1.403       .  A
C2697      C2702   1.407       .  A
C2698      C2699   1.397       .  A
C2698      H2709   1.083       .  S
C2699      C2700   1.405       .  A
C2699      H2710   1.083       .  S
C2700      C2701   1.406       .  A
C2701      C2702   1.397       .  A
C2701      H2711   1.083       .  S
C2702      H2712   1.081       .  S
C2713      C2714   1.402       .  A
C2713      C2718   1.408       .  A
C2714      C2715   1.408       .  A
C2714      H2727   1.083       .  S
C2715      C2716   1.412       .  A
C2715      H2728   1.083       .  S
C2716      C2717   1.405       .  A
C2716      C2719   1.497       .  S
C2717      C2718   1.397       .  A
C2717      H2729   1.081       .  S
C2718      H2730   1.084       .  S
C2719      C2720   1.358       .  D
C2719      H2731   1.085       .  S
C2720      C2721   1.497       .  S
C2720      H2732   1.085       .  S
C2721      C2722   1.411       .  A
C2721      C2726   1.404       .  A
C2722      C2723   1.409       .  A
C2722      H2733   1.083       .  S
C2723      C2724   1.403       .  A
C2723      H2734   1.083       .  S
C2724      C2725   1.409       .  A
C2725      C2726   1.396       .  A
C2725      H2735   1.084       .  S
C2726      H2736   1.081       .  S
C2737      C2738   1.401       .  A
C2737      C2742   1.408       .  A
C2738      C2739   1.405       .  A
C2738      H2751   1.083       .  S
C2739      C2740   1.410       .  A
C2739      H2752   1.083       .  S
C2740      C2741   1.404       .  A
C2740      C2743   1.491       .  S
C2741      C2742   1.395       .  A
C2741      H2753   1.081       .  S
C2742      H2754   1.084       .  S
C2743      C2744   1.355       .  D
C2743      H2755   1.085   1_565  S
C2744      C2745   1.492   1_565  S
C2744      H2756   1.086       .  S
C2745      C2746   1.410       .  A
C2745      C2750   1.405       .  A
C2746      C2747   1.406       .  A
C2746      H2757   1.084       .  S
C2747      C2748   1.402       .  A
C2747      H2758   1.082       .  S
C2748      C2749   1.407       .  A
C2749      C2750   1.393       .  A
C2749      H2759   1.085       .  S
C2750      H2760   1.080       .  S
C2761      C2762   1.405       .  A
C2761      C2766   1.405       .  A
C2762      C2763   1.395       .  A
C2762      H2775   1.083       .  S
C2763      C2764   1.403       .  A
C2763      H2776   1.083       .  S
C2764      C2765   1.408       .  A
C2764      C2767   1.485       .  S
C2765      C2766   1.397       .  A
C2765      H2777   1.081       .  S
C2766      H2778   1.083       .  S
C2767      C2768   1.346       .  D
C2767      H2779   1.084       .  S
C2768      C2769   1.482       .  S
C2768      H2780   1.083       .  S
C2769      C2770   1.401       .  A
C2769      C2774   1.408       .  A
C2770      C2771   1.395       .  A
C2770      H2781   1.083       .  S
C2771      C2772   1.406       .  A
C2771      H2782   1.084       .  S
C2772      C2773   1.405       .  A
C2773      C2774   1.397       .  A
C2773      H2783   1.082       .  S
C2774      H2784   1.082       .  S
C2785      C2786   1.404       .  A
C2785      C2790   1.408       .  A
C2786      C2787   1.396       .  A
C2786      H2799   1.083       .  S
C2787      C2788   1.403       .  A
C2787      H2800   1.085       .  S
C2788      C2789   1.408       .  A
C2788      C2791   1.488       .  S
C2789      C2790   1.407       .  A
C2790      H2802   1.084       .  S
C2791      H2803   1.085       .  S
C2792      C2793   1.498       .  S
C2792      H2804   1.086       .  S
C2793      C2794   1.402       .  A
C2793      C2798   1.414       .  A
C2794      C2795   1.397       .  A
C2794      H2805   1.084       .  S
C2795      C2796   1.408       .  A
C2795      H2806   1.083       .  S
C2796      C2797   1.406       .  A
C2797      C2798   1.412       .  A
C2797      H2807   1.083       .  S
C2809      C2810   1.406       .  A
C2809      C2814   1.406       .  A
C2810      C2811   1.396       .  A
C2810      H2823   1.083       .  S
C2811      C2812   1.402       .  A
C2811      H2824   1.084       .  S
C2812      C2813   1.407       .  A
C2812      C2815   1.483       .  S
C2813      C2814   1.398       .  A
C2813      H2825   1.081       .  S
C2814      H2826   1.083       .  S
C2815      H2827   1.086       .  S
C2816      C2817   1.482       .  S
C2816      H2828   1.085       .  S
C2817      C2818   1.401       .  A
C2817      C2822   1.407       .  A
C2818      C2819   1.395       .  A
C2818      H2829   1.084       .  S
C2819      C2820   1.406       .  A
C2819      H2830   1.083       .  S
C2820      C2821   1.406       .  A
C2821      C2822   1.399       .  A
C2821      H2831   1.083       .  S
C2822      H2832   1.082       .  S
C2833      C2834   1.406       .  A
C2833      C2838   1.410       .  A
C2834      C2835   1.403       .  A
C2834      H2847   1.084       .  S
C2835      C2836   1.405       .  A
C2835      H2848   1.082       .  S
C2836      C2837   1.406       .  A
C2836      C2839   1.491       .  S
C2837      C2838   1.402       .  A
C2837      H2849   1.084       .  S
C2838      H2850   1.082       .  S
C2839      C2840   1.351       .  D
C2839      H2851   1.084       .  S
C2840      C2841   1.493       .  S
C2840      H2852   1.085       .  S
C2841      C2842   1.408       .  A
C2841      C2846   1.405       .  A
C2842      C2843   1.407       .  A
C2842      H2853   1.082       .  S
C2843      C2844   1.406       .  A
C2843      H2854   1.083       .  S
C2844      C2845   1.408       .  A
C2845      C2846   1.398       .  A
C2845      H2855   1.082       .  S
C2846      H2856   1.083       .  S
C2857      C2858   1.409   1_455  A
C2857      C2862   1.407       .  A
C2858      C2859   1.403       .  A
C2858      H2871   1.083       .  S
C2859      C2860   1.402   1_655  A
C2859      H2872   1.083       .  S
C2860      C2861   1.403       .  A
C2860      C2863   1.481       .  S
C2861      C2862   1.393       .  A
C2861      H2873   1.084       .  S
C2862      H2874   1.083       .  S
C2863      C2864   1.348       .  D
C2863      H2875   1.083       .  S
C2864      C2865   1.487       .  S
C2864      H2876   1.088       .  S
C2865      C2866   1.404       .  A
C2865      C2870   1.409       .  A
C2866      C2867   1.394       .  A
C2866      H2877   1.083       .  S
C2867      C2868   1.402       .  A
C2867      H2878   1.084       .  S
C2869      H2879   1.083   1_554  S
C2881      C2882   1.405       .  A
C2881      C2886   1.406       .  A
C2882      C2883   1.397       .  A
C2882      H2895   1.083       .  S
C2883      C2884   1.404       .  A
C2883      H2896   1.083       .  S
C2884      C2885   1.408       .  A
C2884      C2887   1.489       .  S
C2885      C2886   1.399       .  A
C2885      H2897   1.080       .  S
C2886      H2898   1.083       .  S
C2887      C2888   1.350       .  D
C2887      H2899   1.084       .  S
C2888      C2889   1.488       .  S
C2888      H2900   1.083       .  S
C2889      C2890   1.405       .  A
C2889      C2894   1.407       .  A
C2890      C2891   1.400       .  A
C2890      H2901   1.083       .  S
C2891      C2892   1.406       .  A
C2891      H2902   1.083       .  S
C2892      C2893   1.407       .  A
C2893      C2894   1.396       .  A
C2893      H2903   1.083       .  S
C2894      H2904   1.081       .  S
C2905      C2906   1.407       .  A
C2905      C2910   1.407       .  A
C2906      C2907   1.405       .  A
C2906      H2919   1.083       .  S
C2907      C2908   1.407       .  A
C2907      H2920   1.083       .  S
C2908      C2909   1.407       .  A
C2908      C2911   1.494       .  S
C2909      C2910   1.395       .  A
C2909      H2921   1.081       .  S
C2910      H2922   1.083       .  S
C2911      C2912   1.351       .  D
C2911      H2923   1.084       .  S
C2912      C2913   1.491       .  S
C2912      H2924   1.085       .  S
C2913      C2914   1.403       .  A
C2913      C2918   1.410       .  A
C2914      C2915   1.396       .  A
C2914      H2925   1.084       .  S
C2915      C2916   1.405       .  A
C2915      H2926   1.083       .  S
C2916      C2917   1.407       .  A
C2917      C2918   1.405       .  A
C2917      H2927   1.083       .  S
C2918      H2928   1.081       .  S
C2929      C2930   1.404       .  A
C2929      C2934   1.404       .  A
C2930      C2931   1.400       .  A
C2930      H2943   1.082       .  S
C2931      C2932   1.404       .  A
C2931      H2944   1.085       .  S
C2932      C2933   1.406       .  A
C2932      C2935   1.484       .  S
C2933      C2934   1.400       .  A
C2933      H2945   1.081       .  S
C2934      H2946   1.085       .  S
C2935      C2936   1.347       .  D
C2935      H2947   1.089       .  S
C2936      C2937   1.483       .  S
C2936      H2948   1.089       .  S
C2937      C2938   1.403       .  A
C2937      C2942   1.406       .  A
C2938      C2939   1.399       .  A
C2938      H2949   1.085       .  S
C2939      C2940   1.403       .  A
C2939      H2950   1.082       .  S
C2940      C2941   1.405       .  A
C2941      C2942   1.401       .  A
C2941      H2951   1.085   1_655  S
C2942      H2952   1.081       .  S
C2953      C2954   1.406       .  A
C2953      C2958   1.405       .  A
C2954      C2955   1.393       .  A
C2954      H2967   1.082       .  S
C2955      C2956   1.401       .  A
C2955      H2968   1.085       .  S
C2956      C2957   1.410       .  A
C2956      C2959   1.485       .  S
C2957      C2958   1.401       .  A
C2957      H2969   1.080       .  S
C2958      H2970   1.084       .  S
C2959      C2960   1.345       .  D
C2959      H2971   1.086       .  S
C2960      C2961   1.484       .  S
C2960      H2972   1.085       .  S
C2961      C2962   1.401       .  A
C2961      C2966   1.409       .  A
C2962      C2963   1.396       .  A
C2962      H2973   1.085       .  S
C2963      C2964   1.408       .  A
C2963      H2974   1.082       .  S
C2964      C2965   1.404       .  A
C2965      C2966   1.398       .  A
C2965      H2975   1.084       .  S
C2966      H2976   1.081       .  S
C2977      C2978   1.406       .  A
C2977      C2982   1.410       .  A
C2978      C2979   1.406       .  A
C2978      H2991   1.083       .  S
C2979      C2980   1.408       .  A
C2979      H2992   1.082       .  S
C2980      C2981   1.407       .  A
C2980      C2983   1.498       .  S
C2981      C2982   1.403       .  A
C2981      H2993   1.082       .  S
C2982      H2994   1.082       .  S
C2983      C2984   1.355       .  D
C2983      H2995   1.084       .  S
C2984      C2985   1.499       .  S
C2984      H2996   1.084       .  S
C2985      C2986   1.409       .  A
C2985      C2990   1.406       .  A
C2986      C2987   1.408       .  A
C2986      H2997   1.082       .  S
C2987      C2988   1.406       .  A
C2987      H2998   1.084       .  S
C2988      C2989   1.410       .  A
C2989      C2990   1.401       .  A
C2990      H3000   1.083       .  S
C3001      C3002   1.409       .  A
C3001      C3006   1.407       .  A
C3002      C3003   1.406       .  A
C3002      H3015   1.083       .  S
C3003      C3004   1.405       .  A
C3003      H3016   1.082       .  S
C3004      C3005   1.404       .  A
C3004      C3007   1.490       .  S
C3005      C3006   1.395       .  A
C3005      H3017   1.084       .  S
C3006      H3018   1.083       .  S
C3007      C3008   1.351   1_655  D
C3007      H3019   1.083       .  S
C3008      C3009   1.493       .  S
C3008      H3020   1.087   1_455  S
C3009      C3010   1.405       .  A
C3009      C3014   1.410       .  A
C3010      C3011   1.396       .  A
C3010      H3021   1.084       .  S
C3011      C3012   1.403       .  A
C3011      H3022   1.083       .  S
C3012      C3013   1.407       .  A
C3013      C3014   1.406       .  A
C3013      H3023   1.083       .  S
C3014      H3024   1.080       .  S
C3025      C3026   1.408       .  A
C3025      C3030   1.408       .  A
C3026      C3027   1.397       .  A
C3026      H3039   1.083       .  S
C3027      C3028   1.403       .  A
C3027      H3040   1.084       .  S
C3028      C3029   1.410       .  A
C3028      C3031   1.494       .  S
C3029      C3030   1.407       .  A
C3029      H3041   1.081       .  S
C3030      H3042   1.083       .  S
C3031      C3032   1.351       .  D
C3031      H3043   1.085       .  S
C3032      C3033   1.497       .  S
C3032      H3044   1.085       .  S
C3033      C3034   1.407       .  A
C3033      C3038   1.408       .  A
C3034      C3035   1.405       .  A
C3034      H3045   1.083       .  S
C3035      C3036   1.406       .  A
C3036      C3037   1.408       .  A
C3037      C3038   1.398       .  A
C3037      H3047   1.083       .  S
C3038      H3048   1.082       .  S
C3049      C3050   1.407       .  A
C3049      C3054   1.406       .  A
C3050      C3051   1.397       .  A
C3050      H3063   1.083       .  S
C3051      C3052   1.402       .  A
C3051      H3064   1.084       .  S
C3052      C3053   1.407       .  A
C3052      C3055   1.484       .  S
C3053      C3054   1.398       .  A
C3053      H3065   1.082       .  S
C3054      H3066   1.083       .  S
C3055      C3056   1.347       .  D
C3055      H3067   1.084       .  S
C3056      C3057   1.488       .  S
C3056      H3068   1.086       .  S
C3057      C3058   1.404       .  A
C3057      C3062   1.409       .  A
C3058      C3059   1.396       .  A
C3058      H3069   1.084       .  S
C3059      C3060   1.405       .  A
C3059      H3070   1.083       .  S
C3060      C3061   1.405       .  A
C3061      C3062   1.398       .  A
C3061      H3071   1.083       .  S
C3062      H3072   1.080       .  S
C3073      C3074   1.407       .  A
C3073      C3078   1.409       .  A
C3074      C3075   1.408       .  A
C3074      H3087   1.083       .  S
C3075      C3076   1.409       .  A
C3075      H3088   1.083       .  S
C3076      C3077   1.407       .  A
C3076      C3079   1.499       .  S
C3077      C3078   1.397       .  A
C3077      H3089   1.081       .  S
C3078      H3090   1.083       .  S
C3079      C3080   1.353       .  D
C3079      H3091   1.085       .  S
C3080      C3081   1.495       .  S
C3080      H3092   1.085       .  S
C3081      C3082   1.404       .  A
C3081      C3086   1.410       .  A
C3082      C3083   1.398       .  A
C3082      H3093   1.084       .  S
C3083      C3084   1.406       .  A
C3083      H3094   1.083       .  S
C3084      C3085   1.409       .  A
C3085      C3086   1.407       .  A
C3085      H3095   1.083       .  S
C3086      H3096   1.081       .  S
C3097      C3098   1.407       .  A
C3097      C3102   1.405       .  A
C3098      C3099   1.397       .  A
C3098      H3111   1.083       .  S
C3099      C3100   1.401       .  A
C3099      H3112   1.083       .  S
C3100      C3101   1.408       .  A
C3100      C3103   1.483       .  S
C3101      C3102   1.398       .  A
C3101      H3113   1.082       .  S
C3102      H3114   1.083       .  S
C3103      C3104   1.346       .  D
C3103      H3115   1.084       .  S
C3104      C3105   1.486       .  S
C3104      H3116   1.086       .  S
C3105      C3106   1.402       .  A
C3105      C3110   1.410       .  A
C3106      C3107   1.394       .  A
C3106      H3117   1.083       .  S
C3107      C3108   1.405       .  A
C3107      H3118   1.083       .  S
C3108      C3109   1.405       .  A
C3109      C3110   1.400       .  A
C3109      H3119   1.083       .  S
C3110      H3120   1.081       .  S
C3121      C3122   1.402       .  A
C3122      C3123   1.407       .  A
C3122      H3135   1.083       .  S
C3123      H3136   1.083       .  S
C3124      C3125   1.405       .  A
C3124      C3127   1.498       .  S
C3125      C3126   1.395       .  A
C3125      H3137   1.081       .  S
C3126      H3138   1.084       .  S
C3127      C3128   1.358       .  D
C3127      H3139   1.085       .  S
C3128      C3129   1.497       .  S
C3128      H3140   1.085       .  S
C3129      C3130   1.411       .  A
C3129      C3134   1.405       .  A
C3130      C3131   1.407       .  A
C3130      H3141   1.084       .  S
C3131      C3132   1.403       .  A
C3131      H3142   1.082       .  S
C3132      C3133   1.408       .  A
C3133      C3134   1.398       .  A
C3133      H3143   1.084       .  S
C3134      H3144   1.081       .  S
C3145      C3146   1.406       .  A
C3145      C3150   1.410       .  A
C3146      C3147   1.408       .  A
C3146      H3159   1.084       .  S
C3147      C3148   1.409       .  A
C3147      H3160   1.082       .  S
C3148      C3149   1.405       .  A
C3148      C3151   1.498       .  S
C3149      C3150   1.399       .  A
C3149      H3161   1.083       .  S
C3150      H3162   1.082       .  S
C3151      C3152   1.355       .  D
C3151      H3163   1.084       .  S
C3152      C3153   1.497       .  S
C3152      H3164   1.084       .  S
C3153      C3154   1.408       .  A
C3153      C3158   1.406       .  A
C3154      C3155   1.405       .  A
C3154      H3165   1.081       .  S
C3155      C3156   1.406       .  A
C3155      H3166   1.084       .  S
C3156      C3157   1.409       .  A
C3157      C3158   1.403       .  A
C3157      H3167   1.081       .  S
C3158      H3168   1.083       .  S
C3169      C3170   1.407       .  A
C3169      C3174   1.405       .  A
C3170      C3171   1.392       .  A
C3170      H3183   1.083       .  S
C3171      C3172   1.399       .  A
C3172      C3173   1.409       .  A
C3173      C3174   1.399       .  A
C3173      H3185   1.081       .  S
C3174      H3186   1.083       .  S
C3175      H3187   1.086       .  S
C3176      H3188   1.085       .  S
C3177      C3178   1.401       .  A
C3177      C3182   1.408       .  A
C3178      C3179   1.397       .  A
C3179      C3180   1.407       .  A
C3179      H3190   1.083       .  S
C3180      C3181   1.404       .  A
C3181      C3182   1.396       .  A
C3181      H3191   1.083       .  S
C3182      H3192   1.081       .  S
C3193      C3194   1.406       .  A
C3193      C3198   1.407       .  A
C3194      C3195   1.405       .  A
C3194      H3207   1.083       .  S
C3195      C3196   1.408       .  A
C3195      H3208   1.083   1_556  S
C3196      C3197   1.408       .  A
C3196      C3199   1.497   1_556  S
C3197      C3198   1.397       .  A
C3197      H3209   1.080       .  S
C3198      H3210   1.083       .  S
C3200      C3201   1.496       .  S
C3200      H3212   1.083       .  S
C3201      C3202   1.404       .  A
C3201      C3206   1.411       .  A
C3202      C3203   1.396       .  A
C3202      H3213   1.083       .  S
C3203      C3204   1.406       .  A
C3203      H3214   1.083       .  S
C3204      C3205   1.408       .  A
C3205      C3206   1.409       .  A
C3205      H3215   1.083       .  S
C3206      H3216   1.082       .  S
C3217      C3218   1.404       .  A
C3217      C3222   1.407       .  A
C3218      C3219   1.396       .  A
C3218      H3231   1.083       .  S
C3219      C3220   1.404       .  A
C3219      H3232   1.083       .  S
C3220      C3221   1.407       .  A
C3220      C3223   1.486       .  S
C3221      C3222   1.398       .  A
C3221      H3233   1.080       .  S
C3222      H3234   1.083       .  S
C3223      C3224   1.349       .  D
C3223      H3235   1.083       .  S
C3224      C3225   1.485       .  S
C3224      H3236   1.082       .  S
C3225      C3226   1.404       .  A
C3225      C3230   1.406       .  A
C3226      C3227   1.399       .  A
C3226      H3237   1.082       .  S
C3227      C3228   1.406       .  A
C3227      H3238   1.084       .  S
C3228      C3229   1.405       .  A
C3229      C3230   1.395       .  A
C3229      H3239   1.082       .  S
C3230      H3240   1.083       .  S
C3241      C3242   1.402       .  A
C3241      C3246   1.405       .  A
C3242      C3243   1.406       .  A
C3242      H3255   1.082       .  S
C3243      C3244   1.410       .  A
C3243      H3256   1.084       .  S
C3244      C3245   1.405       .  A
C3244      C3247   1.492       .  S
C3245      C3246   1.394       .  A
C3245      H3257   1.080       .  S
C3246      H3258   1.085       .  S
C3247      C3248   1.356       .  D
C3247      H3259   1.086   1_655  S
C3248      C3249   1.492   1_655  S
C3248      H3260   1.085       .  S
C3249      C3250   1.411       .  A
C3249      C3254   1.404       .  A
C3250      C3251   1.406       .  A
C3250      H3261   1.084       .  S
C3251      C3252   1.401       .  A
C3251      H3262   1.082       .  S
C3252      C3253   1.408       .  A
C3253      C3254   1.394       .  A
C3253      H3263   1.085       .  S
C3254      H3264   1.081       .  S
C3265      C3266   1.402       .  A
C3265      C3270   1.408       .  A
C3266      C3267   1.406       .  A
C3266      H3279   1.083       .  S
C3267      C3268   1.411       .  A
C3267      H3280   1.083       .  S
C3268      C3269   1.406       .  A
C3268      C3271   1.496       .  S
C3269      C3270   1.395       .  A
C3269      H3281   1.080       .  S
C3270      H3282   1.084       .  S
C3271      C3272   1.356       .  D
C3271      H3283   1.083       .  S
C3272      C3273   1.496       .  S
C3272      H3284   1.084       .  S
C3273      C3274   1.411       .  A
C3273      C3278   1.406       .  A
C3274      C3275   1.405       .  A
C3274      H3285   1.084       .  S
C3275      C3276   1.402       .  A
C3275      H3286   1.082       .  S
C3276      C3277   1.408       .  A
C3277      C3278   1.395       .  A
C3277      H3287   1.084       .  S
C3278      H3288   1.079       .  S
C3289      C3290   1.406       .  A
C3289      C3294   1.409       .  A
C3290      C3291   1.405       .  A
C3290      H3303   1.083       .  S
C3291      C3292   1.407       .  A
C3291      H3304   1.082       .  S
C3292      C3293   1.405       .  A
C3292      C3295   1.493       .  S
C3293      C3294   1.397       .  A
C3293      H3305   1.082       .  S
C3294      H3306   1.082       .  S
C3295      C3296   1.352       .  D
C3295      H3307   1.084       .  S
C3296      C3297   1.492       .  S
C3296      H3308   1.084       .  S
C3297      C3298   1.407       .  A
C3297      C3302   1.406       .  A
C3298      C3299   1.403       .  A
C3298      H3309   1.082       .  S
C3299      C3300   1.404       .  A
C3299      H3310   1.084       .  S
C3300      C3301   1.407       .  A
C3301      C3302   1.399       .  A
C3301      H3311   1.082       .  S
C3302      H3312   1.082       .  S
C3313      C3314   1.406       .  A
C3313      C3318   1.405       .  A
C3314      C3315   1.394       .  A
C3314      H3327   1.082       .  S
C3315      C3316   1.400       .  A
C3315      H3328   1.084       .  S
C3316      C3317   1.408       .  A
C3316      C3319   1.480       .  S
C3317      C3318   1.397       .  A
C3317      H3329   1.081       .  S
C3318      H3330   1.084       .  S
C3319      C3320   1.345       .  D
C3319      H3331   1.086       .  S
C3320      C3321   1.482       .  S
C3320      H3332   1.087       .  S
C3321      C3322   1.401       .  A
C3321      C3326   1.409       .  A
C3322      C3323   1.395       .  A
C3322      H3333   1.085       .  S
C3323      C3324   1.407       .  A
C3323      H3334   1.082       .  S
C3324      C3325   1.404       .  A
C3325      C3326   1.397       .  A
C3326      H3336   1.080       .  S
C3337      C3338   1.403       .  A
C3337      C3342   1.407       .  A
C3338      C3339   1.394       .  A
C3339      C3340   1.404       .  A
C3339      H3352   1.083       .  S
C3340      C3341   1.410       .  A
C3340      C3343   1.490       .  S
C3341      C3342   1.406       .  A
C3341      H3353   1.082       .  S
C3342      H3354   1.083       .  S
C3343      C3344   1.351       .  D
C3343      H3355   1.083       .  S
C3344      C3345   1.497       .  S
C3344      H3356   1.084       .  S
C3345      C3346   1.408       .  A
C3345      C3350   1.407       .  A
C3346      C3347   1.407       .  A
C3346      H3357   1.082       .  S
C3347      C3348   1.407       .  A
C3347      H3358   1.083       .  S
C3348      C3349   1.408       .  A
C3349      C3350   1.394       .  A
C3349      H3359   1.082       .  S
C3350      H3360   1.081       .  S
C3361      C3362   1.406       .  A
C3361      C3366   1.405       .  A
C3362      C3363   1.397       .  A
C3362      H3375   1.084       .  S
C3363      C3364   1.401       .  A
C3363      H3376   1.083       .  S
C3364      C3365   1.405       .  A
C3364      C3367   1.478       .  S
C3365      C3366   1.393       .  A
C3365      H3377   1.083       .  S
C3366      H3378   1.082       .  S
C3367      C3368   1.346       .  D
C3367      H3379   1.084       .  S
C3368      C3369   1.480       .  S
C3368      H3380   1.086       .  S
C3369      C3370   1.402       .  A
C3369      C3374   1.407       .  A
C3370      C3371   1.394       .  A
C3370      H3381   1.083       .  S
C3371      C3372   1.404       .  A
C3371      H3382   1.083       .  S
C3372      C3373   1.406       .  A
C3373      C3374   1.396       .  A
C3373      H3383   1.083       .  S
C3374      H3384   1.081       .  S
