geometry optimzed in LAMMPS
_audit_creation_date              2020-11-30 
_audit_creation_method            'lammps2cif' 
_symmetry_space_group_name_H-M    'P1' 
_symmetry_Int_Tables_number       1 
_symmetry_cell_setting            triclinic 
loop_ 
_symmetry_equiv_pos_as_xyz 
  x,y,z 
_cell_length_a                    35.61883590398313 
_cell_length_b                    39.93655314247151 
_cell_length_c                    24.925296454984565 
_cell_angle_alpha                 89.51619347133256 
_cell_angle_beta                  90.25763948400227 
_cell_angle_gamma                 89.55732095329739 
loop_ 
_atom_site_label 
_atom_site_type_symbol 
_atom_site_fract_x 
_atom_site_fract_y 
_atom_site_fract_z 
_atom_site_charge 
O1          O  0.20557279  0.34856417  0.30777550    -0.82300
C2          C  0.30681647  0.42239343  0.43384478     0.97060
O3          O  0.28937356  0.43350192  0.39297882    -0.71410
O4          O  0.29681938  0.39808469  0.30670977    -0.75010
Al5        Al  0.25399438  0.41296121  0.34454962     1.48980
C6          C  0.30434112  0.37019814  0.28621373     0.92310
O7          O  0.28920910  0.31593690  0.38490772    -0.81230
O8          O  0.20354718  0.35600518  0.45714391    -0.74780
Al9        Al  0.24757197  0.33516875  0.34818413     1.90120
O10         O  0.27468354  0.33303322  0.46488625    -0.73850
O11         O  0.22662225  0.41789937  0.46037861    -0.73700
O12         O  0.29778467  0.39525040  0.45630914    -0.79360
O13         O  0.21223833  0.43336969  0.37874669    -0.77570
O14         O  0.25071654  0.37455668  0.38182387    -1.13700
O15         O  0.21844038  0.40083513  0.28923652    -0.72900
C16         C  0.19765302  0.37552748  0.28395012     0.97820
C17         C  0.29112289  0.31236381  0.43495145     0.94220
Al18       Al  0.25068739  0.37544599  0.45336356     1.55560
O19         O  0.28272454  0.34562036  0.29235850    -0.77520
C20         C  0.21019758  0.43786935  0.42853488     0.98390
C21         C  0.19373938  0.32888492  0.43610045     0.93270
O22         O  0.21170719  0.31620506  0.39747826    -0.82840
O23         O  0.04107260  0.14974458  0.30581026    -0.82300
C24         C  0.44436682  0.07876277  0.44225747     0.97060
O25         O  0.46204596  0.06618977  0.40314847    -0.71410
O26         O  0.45373964  0.09740421  0.31226944    -0.75010
Al27       Al  0.49686050  0.08539143  0.35219938     1.48980
C28         C  0.44347663  0.12436278  0.29005376     0.92310
O29         O  0.45900175  0.18323217  0.38301221    -0.81230
O30         O  0.04684106  0.14659184  0.45669133    -0.74780
Al31       Al  0.00002057  0.16340130  0.34683062     1.90120
O32         O  0.47592712  0.16921050  0.46404707    -0.73850
O33         O  0.02431659  0.08459802  0.46832720    -0.73700
O34         O  0.45315449  0.10671629  0.46161323    -0.79360
O35         O  0.53949252  0.06747377  0.38868585    -0.77570
O36         O  0.49895316  0.12515440  0.38477604    -1.13700
O37         O  0.03161468  0.09623571  0.29559291    -0.72900
C38         C  0.05045701  0.12223511  0.28581118     0.97820
C39         C  0.45847918  0.18861651  0.43250060     0.94220
Al40       Al  0.99996300  0.12666508  0.45630551     1.55560
O41         O  0.46329536  0.15028997  0.29446388    -0.77520
C42         C  0.04134027  0.06414301  0.43881805     0.98390
C43         C  0.05590201  0.17300790  0.43212584     0.93270
O44         O  0.03700452  0.18425649  0.39259341    -0.82840
O45         O  0.45267103  0.39811405  0.15514944    -0.82300
C46         C  0.05452786  0.32986841  0.02260947     0.97060
O47         O  0.03727728  0.31682354  0.06173152    -0.71410
O48         O  0.04495148  0.34843377  0.15069592    -0.75010
Al49       Al  0.00220161  0.33548840  0.11243557     1.48980
C50         C  0.05315235  0.37507436  0.17429126     0.92310
O51         O  0.53624804  0.43378362  0.08174173    -0.81230
O52         O  0.44976276  0.39708569  0.00659999    -0.74780
Al53       Al  0.49492656  0.41325090  0.11679101     1.90120
O54         O  0.02071441  0.41937449  0.00049055    -0.73850
O55         O  0.47333984  0.33509719  0.99685420    -0.73700
O56         O  0.04428549  0.35743798  0.00231737    -0.79360
O57         O  0.96007157  0.31677123  0.07699721    -0.77570
O58         O  0.49806873  0.37529149  0.07917945    -1.13700
O59         O  0.46794565  0.34557423  0.16977835    -0.72900
C60         C  0.44582616  0.37006629  0.17594061     0.97820
C61         C  0.03804100  0.43846787  0.03180534     0.94220
Al62       Al  0.49704277  0.37710875  0.00781251     1.55560
O63         O  0.03111258  0.40004369  0.17145048    -0.77520
C64         C  0.45761484  0.31396491  0.02689590     0.98390
C65         C  0.44073427  0.42404378  0.02921382     0.93270
O66         O  0.45879432  0.43481108  0.06930777    -0.82840
O67         O  0.29103339  0.09736343  0.15836722    -0.82300
C68         C  0.19388644  0.17070170  0.02167520     0.97060
O69         O  0.21001939  0.18237291  0.06291230    -0.71410
O70         O  0.20280138  0.14931871  0.15216448    -0.75010
Al71       Al  0.24541229  0.16272950  0.11372220     1.48980
C72         C  0.19310778  0.12200506  0.17305667     0.92310
O73         O  0.21030921  0.06583532  0.07525176    -0.81230
O74         O  0.29916329  0.10417513  0.00857793    -0.74780
Al75       Al  0.25058329  0.08458408  0.11465144     1.90120
O76         O  0.22871638  0.08188989  0.99610508    -0.73850
O77         O  0.27560391  0.16638700  0.99885965    -0.73700
O78         O  0.20490398  0.14395538  0.00016762    -0.79360
O79         O  0.28742182  0.18250982  0.08009244    -0.77570
O80         O  0.24927515  0.12383077  0.07893818    -1.13700
O81         O  0.28037210  0.15088222  0.16988806    -0.72900
C82         C  0.29970305  0.12479680  0.17918069     0.97820
C83         C  0.21049622  0.06200161  0.02529199     0.94220
Al84       Al  0.25191183  0.12405827  0.00740110     1.55560
O85         O  0.21310237  0.09612576  0.16681757    -0.77520
C86         C  0.29071842  0.18670203  0.03044141     0.98390
C87         C  0.30762212  0.07670643  0.03091609     0.93270
O88         O  0.28830352  0.06465752  0.06892385    -0.82840
C89         C  0.33448939  0.12631894  0.21201916    -0.05960
C90         C  0.35822277  0.15418081  0.20781607    -0.33390
C91         C  0.39396271  0.15397429  0.23210555     0.35860
C92         C  0.40665186  0.12548429  0.26118905    -0.06320
C93         C  0.38230839  0.09801875  0.26619261    -0.33290
C94         C  0.34672110  0.09832335  0.24222649     0.35760
H95         H  0.34961507  0.17574246  0.18396261     0.16130
O96         O  0.41658143  0.18132786  0.22559089    -0.60790
H97         H  0.39069799  0.07605400  0.28919578     0.16150
O98         O  0.32417440  0.07086714  0.24828300    -0.60890
H99         H  0.30827473  0.07583056  0.27984533     0.43140
H100        H  0.40923738  0.19690938  0.25455838     0.43100
C101        C  0.08523304  0.12088572  0.25299473    -0.05960
C102        C  0.10653522  0.09115427  0.24954971    -0.33390
C103        C  0.14193483  0.09087183  0.22451368     0.35860
C104        C  0.15688244  0.12078553  0.20294613    -0.06320
C105        C  0.13528990  0.15029435  0.20650313    -0.33290
C106        C  0.09984329  0.15043000  0.23007937     0.35760
H107        H  0.09620085  0.06823415  0.26752547     0.16130
O108        O  0.16187149  0.06140127  0.22255171    -0.60790
H109        H  0.14571417  0.17370469  0.19045284     0.16150
O110        O  0.07988082  0.17994008  0.23089803    -0.60890
H111        H  0.06346033  0.17934812  0.19868042     0.43140
H112        H  0.15333239  0.05033509  0.18922858     0.43100
C113        C  0.41221827  0.06171876  0.46583503    -0.05960
C114        C  0.38099854  0.05552467  0.43333273    -0.33390
C115        C  0.34526494  0.05487318  0.45614620     0.35860
C116        C  0.34124280  0.05967261  0.01174476    -0.06320
C117        C  0.37294252  0.05938034  0.04495910    -0.33290
C118        C  0.40861317  0.06079325  0.52208485     0.35760
H119        H  0.38362730  0.05581864  0.39002932     0.16130
O120        O  0.31419229  0.05350269  0.42345410    -0.60790
H121        H  0.37001871  0.06286193  0.08783369     0.16150
O122        O  0.43949285  0.06477797  0.55451979    -0.60890
H123        H  0.43877844  0.08851651  0.06591046     0.43140
H124        H  0.31130361  0.07630427  0.40779571     0.43100
C125        C  0.08996691  0.18956003  0.45023412    -0.06200
C126        C  0.09384737  0.19528401  0.50543831    -0.33390
C127        C  0.12927379  0.19397536  0.02960878     0.35860
C128        C  0.16085661  0.18720184  0.99792637    -0.06320
C129        C  0.15733150  0.18727433  0.44174010    -0.33290
C130        C  0.12192427  0.18850868  0.41763181     0.35760
H131        H  0.06917526  0.19618235  0.53072179     0.16130
O132        O  0.13198255  0.19416756  0.08448044    -0.60790
H133        H  0.18165643  0.18232253  0.41696490     0.16150
O134        O  0.11876369  0.18262233  0.36366818    -0.60890
H135        H  0.11449663  0.20496872  0.34701670     0.43140
H136        H  0.12626344  0.17091576  0.09589612     0.43100
C137        C  0.05566893  0.46902106  0.00956069    -0.05960
C138        C  0.05884840  0.49734204  0.04222533    -0.33390
C139        C  0.06005602  0.02942084  0.51932800     0.35860
C140        C  0.05788614  0.03335640  0.46304543    -0.06320
C141        C  0.56213518  0.50490776  0.43085311    -0.33290
C142        C  0.56072686  0.47280972  0.45370289     0.35760
H143        H  0.05618339  0.49503069  0.08538375     0.16130
O144        O  0.05889228  0.05666578  0.05242517    -0.60790
H145        H  0.56204806  0.50725502  0.38751130     0.16150
O146        O  0.56123087  0.44543738  0.42073669    -0.60890
H147        H  0.53625787  0.44522428  0.40293956     0.43140
H148        H  0.08513546  0.06470867  0.05418723     0.43100
C149        C  0.44225584  0.22009694  0.45354324    -0.05960
C150        C  0.43579982  0.22285730  0.50888428    -0.33390
C151        C  0.43538033  0.25425048  0.03355691     0.35860
C152        C  0.44153555  0.28341846  0.00253416    -0.06320
C153        C  0.94142593  0.28078012  0.44630189    -0.33290
C154        C  0.94187011  0.24946675  0.42169367     0.35760
H155        H  0.43477242  0.20055480  0.53389398     0.16130
O156        O  0.43244569  0.25574993  0.08835597    -0.60790
H157        H  0.94508993  0.30285244  0.42133430     0.16150
O158        O  0.94737378  0.24811201  0.36732952    -0.60890
H159        H  0.92184271  0.24662308  0.35155985     0.43140
H160        H  0.45765294  0.24946414  0.10242873     0.43100
C161        C  0.40993670  0.36567101  0.20437306    -0.05960
C162        C  0.40875480  0.36368105  0.26045644    -0.33390
C163        C  0.37411824  0.36348339  0.28713902     0.35860
C164        C  0.34025983  0.36598785  0.25772676    -0.06320
C165        C  0.34143142  0.36616987  0.20159318    -0.33290
C166        C  0.37603415  0.36563774  0.17490394     0.35760
H167        H  0.43460625  0.36316571  0.28353228     0.16130
O168        O  0.37357721  0.36160334  0.34210978    -0.60790
H169        H  0.31559744  0.36748994  0.17852881     0.16150
O170        O  0.37654378  0.36576795  0.11987158    -0.60890
H171        H  0.37926832  0.34192974  0.10965064     0.43140
H172        H  0.37030383  0.33751101  0.35069712     0.43100
C173        C  0.16252175  0.37707564  0.25157423    -0.05960
C174        C  0.13984410  0.40609230  0.25094257    -0.33390
C175        C  0.10391034  0.40603245  0.22692608     0.35860
C176        C  0.08998942  0.37653970  0.20319474    -0.06320
C177        C  0.11331754  0.34790393  0.20310810    -0.33290
C178        C  0.14898906  0.34804116  0.22656608     0.35760
H179        H  0.14948163  0.42856421  0.27060811     0.16130
O180        O  0.08256383  0.43473641  0.22781309    -0.60790
H181        H  0.10406320  0.32499303  0.18440527     0.16150
O182        O  0.17034168  0.31932070  0.22518282    -0.60890
H183        H  0.18633112  0.32173881  0.19292621     0.43140
H184        H  0.08966510  0.44735345  0.19499752     0.43100
C185        C  0.33868479  0.44037142  0.45643025    -0.05960
C186        C  0.34061323  0.44360291  0.51242981    -0.33390
C187        C  0.37553526  0.44475807  0.03835584     0.35860
C188        C  0.40816486  0.44207530  0.00745383    -0.06320
C189        C  0.40589222  0.44579284  0.45145165    -0.33290
C190        C  0.37101694  0.44513677  0.42559885     0.35760
H191        H  0.31535609  0.44131256  0.53624940     0.16130
O192        O  0.37782145  0.44490959  0.09345631    -0.60790
H193        H  0.43120080  0.44480230  0.42749303     0.16150
O194        O  0.36909266  0.44506559  0.37056636    -0.60890
H195        H  0.38216168  0.42435157  0.35915609     0.43140
H196        H  0.36036992  0.42753995  0.10674725     0.43100
C197        C  0.15973062  0.31327829  0.45648498    -0.05960
C198        C  0.12838744  0.31218565  0.42258897    -0.33390
C199        C  0.09242276  0.31278398  0.44447693     0.35860
C200        C  0.08806490  0.31403743  0.00056619    -0.06320
C201        C  0.11922654  0.30928849  0.03416563    -0.33290
C202        C  0.15525671  0.30937697  0.51227794     0.35760
H203        H  0.13165234  0.31528503  0.37960798     0.16130
O204        O  0.06200332  0.31667177  0.41096590    -0.60790
H205        H  0.11603668  0.30998773  0.07737512     0.16150
O206        O  0.18596799  0.30905141  0.54576742    -0.60890
H207        H  0.18770561  0.33210693  0.06003322     0.43140
H208        H  0.04937416  0.29462695  0.41122645     0.43100
C209        C  0.19353263  0.46898717  0.45035661    -0.05960
C210        C  0.18820523  0.47131410  0.50606204    -0.33390
C211        C  0.18820331  0.50244453  0.03135238     0.35860
C212        C  0.19399294  0.03179292  0.00069141    -0.06320
C213        C  0.19260532  0.02969964  0.44444334    -0.33290
C214        C  0.19217974  0.99859189  0.41912659     0.35760
H215        H  0.18797399  0.44886183  0.03078370     0.16130
O216        O  0.18762712  0.50328698  0.08632770    -0.60790
H217        H  0.19576143  0.05202930  0.41991811     0.16150
O218        O  0.19578715  0.99765124  0.36441431    -0.60890
H219        H  0.16980219  0.99549466  0.35050154     0.43140
H220        H  0.16101185  0.50761834  0.09569675     0.43100
C221        C  0.30739128  0.21783073  0.00849073    -0.05960
C222        C  0.31226008  0.22085956  0.45275679    -0.33390
C223        C  0.31268940  0.25237392  0.42787580     0.35860
C224        C  0.30764720  0.28144984  0.45895310    -0.06320
C225        C  0.30960323  0.27846317  0.51512075    -0.33290
C226        C  0.30971464  0.24694682  0.04003588     0.35760
H227        H  0.31190863  0.19879760  0.42774616     0.16130
O228        O  0.31306182  0.25400557  0.37291146    -0.60790
H229        H  0.30714368  0.30049711  0.03998397     0.16150
O230        O  0.30700392  0.24529038  0.09484889    -0.60890
H231        H  0.33313242  0.24192551  0.10781384     0.43140
H232        H  0.33967291  0.25794379  0.36337889     0.43100
O233        O  0.20557283  0.34856435  0.80777552    -0.82300
C234        C  0.30681647  0.42239363  0.93384481     0.97060
O235        O  0.28937358  0.43350211  0.89297883    -0.71410
O236        O  0.29681942  0.39808486  0.80670979    -0.75010
Al237      Al  0.25399441  0.41296139  0.84454961     1.48980
C238        C  0.30434116  0.37019831  0.78621377     0.92310
O239        O  0.28920913  0.31593711  0.88490779    -0.81230
O240        O  0.20354715  0.35600539  0.95714389    -0.74780
Al241      Al  0.24757200  0.33516894  0.84818417     1.90120
O242        O  0.27468351  0.33303343  0.96488630    -0.73850
O243        O  0.22662222  0.41789958  0.96037858    -0.73700
O244        O  0.29778464  0.39525061  0.95630919    -0.79360
O245        O  0.21223835  0.43336989  0.87874664    -0.77570
O246        O  0.25071655  0.37455688  0.88182389    -1.13700
O247        O  0.21844042  0.40083530  0.78923651    -0.72900
C248        C  0.19765306  0.37552765  0.78395011     0.97820
C249        C  0.29112289  0.31236402  0.93495153     0.94220
Al250      Al  0.25068737  0.37544620  0.95336358     1.55560
O251        O  0.28272458  0.34562054  0.79235854    -0.77520
C252        C  0.21019757  0.43786956  0.92853483     0.98390
C253        C  0.19373939  0.32888511  0.93610047     0.93270
O254        O  0.21170721  0.31620525  0.89747830    -0.82840
O255        O  0.04107267  0.14974443  0.80581029    -0.82300
C256        C  0.44436681  0.07876268  0.94225743     0.97060
O257        O  0.46204597  0.06618965  0.90314849    -0.71410
O258        O  0.45373966  0.09740408  0.81226945    -0.75010
Al259      Al  0.49686052  0.08539129  0.85219939     1.48980
C260        C  0.44347669  0.12436264  0.79005372     0.92310
O261        O  0.45900178  0.18323202  0.88301207    -0.81230
O262        O  0.04684103  0.14659174  0.95669137    -0.74780
Al263      Al  0.00002060  0.16340117  0.84683058     1.90120
O264        O  0.47592711  0.16921043  0.96404699    -0.73850
O265        O  0.02431655  0.08459793  0.96832723    -0.73700
O266        O  0.45315447  0.10671621  0.96161317    -0.79360
O267        O  0.53949254  0.06747366  0.88868590    -0.77570
O268        O  0.49895319  0.12515427  0.88477603    -1.13700
O269        O  0.03161469  0.09623557  0.79559292    -0.72900
C270        C  0.05045705  0.12223495  0.78581120     0.97820
C271        C  0.45847922  0.18861642  0.93250045     0.94220
Al272      Al  0.99996296  0.12666499  0.95630550     1.55560
O273        O  0.46329545  0.15028981  0.79446378    -0.77520
C274        C  0.04134025  0.06414292  0.93881811     0.98390
C275        C  0.05590197  0.17300781  0.93212590     0.93270
O276        O  0.03700452  0.18425638  0.89259341    -0.82840
O277        O  0.45267106  0.39811414  0.65514941    -0.82300
C278        C  0.05452785  0.32986843  0.52260945     0.97060
O279        O  0.03727728  0.31682359  0.56173153    -0.71410
O280        O  0.04495156  0.34843388  0.65069586    -0.75010
Al281      Al  0.00220166  0.33548848  0.61243561     1.48980
C282        C  0.05315241  0.37507447  0.67429120     0.92310
O283        O  0.53624806  0.43378364  0.58174162    -0.81230
O284        O  0.44976273  0.39708568  0.50660002    -0.74780
Al285      Al  0.49492658  0.41325096  0.61679095     1.90120
O286        O  0.02071440  0.41937452  0.50049046    -0.73850
O287        O  0.47333978  0.33509716  0.49685432    -0.73700
O288        O  0.04428548  0.35743800  0.50231733    -0.79360
O289        O  0.96007158  0.31677132  0.57699736    -0.77570
O290        O  0.49806873  0.37529153  0.57917946    -1.13700
O291        O  0.46794572  0.34557435  0.66977848    -0.72900
C292        C  0.44582620  0.37006640  0.67594067     0.97820
C293        C  0.03804099  0.43846792  0.53180524     0.94220
Al294      Al  0.49704274  0.37710873  0.50781252     1.55560
O295        O  0.03111262  0.40004379  0.67145044    -0.77520
C296        C  0.45761478  0.31396492  0.52689610     0.98390
C297        C  0.44073426  0.42404379  0.52921380     0.93270
O298        O  0.45879434  0.43481113  0.56930770    -0.82840
O299        O  0.29103344  0.09736330  0.65836728    -0.82300
C300        C  0.19388648  0.17070150  0.52167515     0.97060
O301        O  0.21001942  0.18237273  0.56291224    -0.71410
O302        O  0.20280140  0.14931855  0.65216446    -0.75010
Al303      Al  0.24541231  0.16272934  0.61372218     1.48980
C304        C  0.19310781  0.12200491  0.67305669     0.92310
O305        O  0.21030927  0.06583513  0.57525187    -0.81230
O306        O  0.29916333  0.10417493  0.50857799    -0.74780
Al307      Al  0.25058334  0.08458391  0.61465152     1.90120
O308        O  0.22871643  0.08188967  0.49610517    -0.73850
O309        O  0.27560393  0.16638679  0.49885964    -0.73700
O310        O  0.20490401  0.14395516  0.50016762    -0.79360
O311        O  0.28742185  0.18250964  0.58009241    -0.77570
O312        O  0.24927519  0.12383059  0.57893821    -1.13700
O313        O  0.28037212  0.15088209  0.66988808    -0.72900
C314        C  0.29970308  0.12479668  0.67918072     0.97820
C315        C  0.21049627  0.06200140  0.52529210     0.94220
Al316      Al  0.25191187  0.12405806  0.50740114     1.55560
O317        O  0.21310242  0.09612562  0.66681764    -0.77520
C318        C  0.29071845  0.18670184  0.53044138     0.98390
C319        C  0.30762218  0.07670626  0.53091619     0.93270
O320        O  0.28830358  0.06465734  0.56892395    -0.82840
C321        C  0.33448942  0.12631884  0.71201920    -0.05960
C322        C  0.35822285  0.15418067  0.70781598    -0.33390
C323        C  0.39396280  0.15397413  0.73210544     0.35860
C324        C  0.40665191  0.12548416  0.76118903    -0.06320
C325        C  0.38230839  0.09801867  0.76619272    -0.33290
C326        C  0.34672109  0.09832328  0.74222664     0.35760
H327        H  0.34961517  0.17574229  0.68396244     0.16130
O328        O  0.41658156  0.18132767  0.72559065    -0.60790
H329        H  0.39069796  0.07605394  0.78919597     0.16150
O330        O  0.32417434  0.07086712  0.74828327    -0.60890
H331        H  0.30827469  0.07583061  0.77984560     0.43140
H332        H  0.40923756  0.19690923  0.75455810     0.43100
C333        C  0.08523307  0.12088555  0.75299474    -0.05960
C334        C  0.10653531  0.09115413  0.74954987    -0.33390
C335        C  0.14193491  0.09087169  0.72451384     0.35860
C336        C  0.15688246  0.12078538  0.70294614    -0.06320
C337        C  0.13528987  0.15029416  0.70650299    -0.33290
C338        C  0.09984326  0.15042981  0.73007924     0.35760
H339        H  0.09620098  0.06823402  0.76752575     0.16130
O340        O  0.16187164  0.06140116  0.72255202    -0.60790
H341        H  0.14571409  0.17370450  0.69045260     0.16150
O342        O  0.07988072  0.17993986  0.73089776    -0.60890
H343        H  0.06346022  0.17934781  0.69868017     0.43140
H344        H  0.15333255  0.05033489  0.68922896     0.43100
C345        C  0.41221821  0.06171871  0.96583494    -0.05960
C346        C  0.38099846  0.05552474  0.93333261    -0.33390
C347        C  0.34526485  0.05487336  0.95614606     0.35860
C348        C  0.34124289  0.05967245  0.51174490    -0.06320
C349        C  0.37294261  0.05938031  0.54495922    -0.33290
C350        C  0.40861309  0.06079318  0.02208476     0.35760
H351        H  0.38362723  0.05581873  0.89002921     0.16130
O352        O  0.31419221  0.05350298  0.92345394    -0.60790
H353        H  0.37001880  0.06286192  0.58783380     0.16150
O354        O  0.43949277  0.06477779  0.05451972    -0.60890
H355        H  0.43877842  0.08851668  0.56591053     0.43140
H356        H  0.31130362  0.07630458  0.90779557     0.43100
C357        C  0.08996681  0.18955999  0.95023429    -0.06200
C358        C  0.09384724  0.19528386  0.00543852    -0.33390
C359        C  0.12927391  0.19397541  0.52960857     0.35860
C360        C  0.16085670  0.18720166  0.49792621    -0.06320
C361        C  0.15733141  0.18727463  0.94174025    -0.33290
C362        C  0.12192418  0.18850887  0.91763197     0.35760
H363        H  0.06917513  0.19618202  0.03072201     0.16130
O364        O  0.13198268  0.19416776  0.58448024    -0.60790
H365        H  0.18165637  0.18232299  0.91696502     0.16150
O366        O  0.11876363  0.18262265  0.86366830    -0.60890
H367        H  0.11449646  0.20496907  0.84701698     0.43140
H368        H  0.12626338  0.17091602  0.59589607     0.43100
C369        C  0.05566887  0.46902113  0.50956057    -0.05960
C370        C  0.05884834  0.49734210  0.54222523    -0.33390
C371        C  0.06005602  0.02942079  0.01932809     0.35860
C372        C  0.05788615  0.03335634  0.96304552    -0.06320
C373        C  0.56213524  0.50490774  0.93085324    -0.33290
C374        C  0.56072693  0.47280970  0.95370304     0.35760
H375        H  0.05618335  0.49503074  0.58538365     0.16130
O376        O  0.05889230  0.05666582  0.55242510    -0.60790
H377        H  0.56204815  0.50725499  0.88751143     0.16150
O378        O  0.56123100  0.44543736  0.92073686    -0.60890
H379        H  0.53625802  0.44522424  0.90293967     0.43140
H380        H  0.08513549  0.06470870  0.55418716     0.43100
C381        C  0.44225596  0.22009692  0.95354296    -0.05960
C382        C  0.43579969  0.22285731  0.00888393    -0.33390
C383        C  0.43538048  0.25425045  0.53355729     0.35860
C384        C  0.44153544  0.28341846  0.50253449    -0.06320
C385        C  0.94142624  0.28078008  0.94630162    -0.33290
C386        C  0.94187044  0.24946672  0.92169342     0.35760
H387        H  0.43477207  0.20055482  0.03389362     0.16130
O388        O  0.43244616  0.25574986  0.58835639    -0.60790
H389        H  0.94509043  0.30285239  0.92133405     0.16150
O390        O  0.94737442  0.24811195  0.86732933    -0.60890
H391        H  0.92184343  0.24662314  0.85155937     0.43140
H392        H  0.45765352  0.24946417  0.60242883     0.43100
C393        C  0.40993674  0.36567113  0.70437311    -0.05960
C394        C  0.40875483  0.36368110  0.76045649    -0.33390
C395        C  0.37411827  0.36348345  0.78713906     0.35860
C396        C  0.34025986  0.36598801  0.75772680    -0.06320
C397        C  0.34143146  0.36617010  0.70159322    -0.33290
C398        C  0.37603419  0.36563794  0.67490398     0.35760
H399        H  0.43460628  0.36316569  0.78353233     0.16130
O400        O  0.37357723  0.36160334  0.84210981    -0.60790
H401        H  0.31559748  0.36749024  0.67852885     0.16150
O402        O  0.37654382  0.36576821  0.61987162    -0.60890
H403        H  0.37926833  0.34193001  0.60965062     0.43140
H404        H  0.37030380  0.33751101  0.85069707     0.43100
C405        C  0.16252180  0.37707580  0.75157420    -0.05960
C406        C  0.13984415  0.40609246  0.75094249    -0.33390
C407        C  0.10391040  0.40603260  0.72692598     0.35860
C408        C  0.08998948  0.37653984  0.70319468    -0.06320
C409        C  0.11331760  0.34790407  0.70310807    -0.33290
C410        C  0.14898911  0.34804131  0.72656607     0.35760
H411        H  0.14948167  0.42856438  0.77060801     0.16130
O412        O  0.08256388  0.43473656  0.72781295    -0.60790
H413        H  0.10406327  0.32499315  0.68440527     0.16150
O414        O  0.17034174  0.31932084  0.72518287    -0.60890
H415        H  0.18633118  0.32173895  0.69292626     0.43140
H416        H  0.08966516  0.44735358  0.69499736     0.43100
C417        C  0.33868480  0.44037159  0.95643028    -0.05960
C418        C  0.34061325  0.44360306  0.01242985    -0.33390
C419        C  0.37553523  0.44475801  0.53835581     0.35860
C420        C  0.40816484  0.44207529  0.50745381    -0.06320
C421        C  0.40589225  0.44579287  0.95145167    -0.33290
C422        C  0.37101696  0.44513689  0.92559888     0.35760
H423        H  0.31535612  0.44131273  0.03624944     0.16130
O424        O  0.37782144  0.44490958  0.59345629    -0.60790
H425        H  0.43120082  0.44480229  0.92749305     0.16150
O426        O  0.36909268  0.44506573  0.87056639    -0.60890
H427        H  0.38216149  0.42435160  0.85915613     0.43140
H428        H  0.36036968  0.42754015  0.60674733     0.43100
C429        C  0.15973065  0.31327844  0.95648502    -0.05960
C430        C  0.12838748  0.31218572  0.92258901    -0.33390
C431        C  0.09242279  0.31278398  0.94447698     0.35860
C432        C  0.08806487  0.31403742  0.50056614    -0.06320
C433        C  0.11922649  0.30928839  0.53416559    -0.33290
C434        C  0.15525676  0.30937714  0.01227798     0.35760
H435        H  0.13165237  0.31528509  0.87960802     0.16130
O436        O  0.06200335  0.31667170  0.91096594    -0.60790
H437        H  0.11603664  0.30998762  0.57737508     0.16150
O438        O  0.18596804  0.30905166  0.04576746    -0.60890
H439        H  0.18770562  0.33210667  0.56003321     0.43140
H440        H  0.04937423  0.29462686  0.91122653     0.43100
C441        C  0.19353260  0.46898739  0.95035652    -0.05960
C442        C  0.18820515  0.47131432  0.00606195    -0.33390
C443        C  0.18820342  0.50244431  0.53135247     0.35860
C444        C  0.19399298  0.03179271  0.50069156    -0.06320
C445        C  0.19260535  0.02969984  0.94444319    -0.33290
C446        C  0.19217978  0.99859209  0.91912645     0.35760
H447        H  0.18797409  0.44886161  0.53078379     0.16130
O448        O  0.18762729  0.50328676  0.58632780    -0.60790
H449        H  0.19576149  0.05202950  0.91991796     0.16150
O450        O  0.19578726  0.99765143  0.86441418    -0.60890
H451        H  0.16980232  0.99549488  0.85050135     0.43140
H452        H  0.16101204  0.50761811  0.59569692     0.43100
C453        C  0.30739130  0.21783052  0.50849067    -0.05960
C454        C  0.31226009  0.22085977  0.95275686    -0.33390
C455        C  0.31268941  0.25237414  0.92787588     0.35860
C456        C  0.30764719  0.28145005  0.95895319    -0.06320
C457        C  0.30960317  0.27846337  0.01512084    -0.33290
C458        C  0.30971471  0.24694662  0.54003580     0.35760
H459        H  0.31190866  0.19879782  0.92774622     0.16130
O460        O  0.31306188  0.25400579  0.87291154    -0.60790
H461        H  0.30714376  0.30049691  0.53998388     0.16150
O462        O  0.30700403  0.24529019  0.59484882    -0.60890
H463        H  0.33313253  0.24192530  0.60781373     0.43140
H464        H  0.33967297  0.25794402  0.86337901     0.43100
O465        O  0.20557279  0.84856418  0.30777552    -0.82300
C466        C  0.30681647  0.92239343  0.43384480     0.97060
O467        O  0.28937356  0.93350193  0.39297885    -0.71410
O468        O  0.29681938  0.89808470  0.30670980    -0.75010
Al469      Al  0.25399439  0.91296122  0.34454964     1.48980
C470        C  0.30434112  0.87019816  0.28621374     0.92310
O471        O  0.28920911  0.81593691  0.38490771    -0.81230
O472        O  0.20354719  0.85600518  0.45714392    -0.74780
Al473      Al  0.24757197  0.83516876  0.34818414     1.90120
O474        O  0.27468354  0.83303322  0.46488625    -0.73850
O475        O  0.22662225  0.91789937  0.46037862    -0.73700
O476        O  0.29778468  0.89525040  0.45630915    -0.79360
O477        O  0.21223833  0.93336969  0.37874671    -0.77570
O478        O  0.25071654  0.87455669  0.38182389    -1.13700
O479        O  0.21844039  0.90083514  0.28923653    -0.72900
C480        C  0.19765302  0.87552749  0.28395013     0.97820
C481        C  0.29112290  0.81236381  0.43495145     0.94220
Al482      Al  0.25068740  0.87544599  0.45336357     1.55560
O483        O  0.28272454  0.84562038  0.29235850    -0.77520
C484        C  0.21019758  0.93786935  0.42853490     0.98390
C485        C  0.19373939  0.82888492  0.43610046     0.93270
O486        O  0.21170719  0.81620506  0.39747827    -0.82840
O487        O  0.04107259  0.64974459  0.30581028    -0.82300
C488        C  0.44436682  0.57876275  0.44225744     0.97060
O489        O  0.46204596  0.56618975  0.40314846    -0.71410
O490        O  0.45373965  0.59740419  0.31226942    -0.75010
Al491      Al  0.49686051  0.58539140  0.35219937     1.48980
C492        C  0.44347665  0.62436276  0.29005373     0.92310
O493        O  0.45900177  0.68323215  0.38301218    -0.81230
O494        O  0.04684106  0.64659185  0.45669134    -0.74780
Al495      Al  0.00002056  0.66340131  0.34683063     1.90120
O496        O  0.47592713  0.66921049  0.46404705    -0.73850
O497        O  0.02431659  0.58459803  0.46832720    -0.73700
O498        O  0.45315449  0.60671627  0.46161320    -0.79360
O499        O  0.53949253  0.56747375  0.38868585    -0.77570
O500        O  0.49895317  0.62515437  0.38477603    -1.13700
O501        O  0.03161466  0.59623573  0.29559291    -0.72900
C502        C  0.05045701  0.62223512  0.28581119     0.97820
C503        C  0.45847920  0.68861649  0.43250057     0.94220
Al504      Al  0.99996299  0.62666509  0.45630552     1.55560
O505        O  0.46329538  0.65028995  0.29446386    -0.77520
C506        C  0.04134026  0.56414302  0.43881805     0.98390
C507        C  0.05590200  0.67300791  0.43212585     0.93270
O508        O  0.03700451  0.68425651  0.39259342    -0.82840
O509        O  0.45267104  0.89811406  0.15514945    -0.82300
C510        C  0.05452789  0.82986842  0.02260947     0.97060
O511        O  0.03727730  0.81682355  0.06173152    -0.71410
O512        O  0.04495149  0.84843377  0.15069592    -0.75010
Al513      Al  0.00220163  0.83548839  0.11243556     1.48980
C514        C  0.05315235  0.87507436  0.17429127     0.92310
O515        O  0.53624805  0.93378360  0.08174170    -0.81230
O516        O  0.44976274  0.89708569  0.00660001    -0.74780
Al517      Al  0.49492657  0.91325089  0.11679100     1.90120
O518        O  0.02071442  0.91937450  0.00049055    -0.73850
O519        O  0.47333979  0.83509717  0.99685422    -0.73700
O520        O  0.04428551  0.85743800  0.00231737    -0.79360
O521        O  0.96007159  0.81677122  0.07699720    -0.77570
O522        O  0.49806872  0.87529148  0.07917945    -1.13700
O523        O  0.46794565  0.84557424  0.16977837    -0.72900
C524        C  0.44582617  0.87006630  0.17594064     0.97820
C525        C  0.03804100  0.93846788  0.03180536     0.94220
Al526      Al  0.49704274  0.87710873  0.00781251     1.55560
O527        O  0.03111259  0.90004369  0.17145049    -0.77520
C528        C  0.45761479  0.81396490  0.02689594     0.98390
C529        C  0.44073426  0.92404378  0.02921384     0.93270
O530        O  0.45879434  0.93481108  0.06930778    -0.82840
O531        O  0.29103339  0.59736343  0.15836720    -0.82300
C532        C  0.19388641  0.67070173  0.02167526     0.97060
O533        O  0.21001938  0.68237294  0.06291235    -0.71410
O534        O  0.20280139  0.64931872  0.15216453    -0.75010
Al535      Al  0.24541229  0.66272950  0.11372222     1.48980
C536        C  0.19310778  0.62200507  0.17305670     0.92310
O537        O  0.21030918  0.56583533  0.07525178    -0.81230
O538        O  0.29916323  0.60417514  0.00857788    -0.74780
Al539      Al  0.25058327  0.58458408  0.11465144     1.90120
O540        O  0.22871632  0.58188991  0.99610509    -0.73850
O541        O  0.27560386  0.66638701  0.99885964    -0.73700
O542        O  0.20490393  0.64395541  0.00016767    -0.79360
O543        O  0.28742182  0.68250982  0.08009243    -0.77570
O544        O  0.24927513  0.62383077  0.07893819    -1.13700
O545        O  0.28037212  0.65088221  0.16988806    -0.72900
C546        C  0.29970306  0.62479679  0.17918067     0.97820
C547        C  0.21049617  0.56200162  0.02529200     0.94220
Al548      Al  0.25191178  0.62405829  0.00740111     1.55560
O549        O  0.21310236  0.59612577  0.16681759    -0.77520
C550        C  0.29071840  0.68670203  0.03044140     0.98390
C551        C  0.30762207  0.57670644  0.03091604     0.93270
O552        O  0.28830349  0.56465753  0.06892382    -0.82840
C553        C  0.33448941  0.62631893  0.21201913    -0.05960
C554        C  0.35822279  0.65418080  0.20781604    -0.33390
C555        C  0.39396273  0.65397427  0.23210553     0.35860
C556        C  0.40665188  0.62548427  0.26118902    -0.06320
C557        C  0.38230841  0.59801873  0.26619257    -0.33290
C558        C  0.34672112  0.59832333  0.24222645     0.35760
H559        H  0.34961509  0.67574244  0.18396259     0.16130
O560        O  0.41658145  0.68132784  0.22559087    -0.60790
H561        H  0.39069801  0.57605398  0.28919573     0.16150
O562        O  0.32417442  0.57086712  0.24828295    -0.60890
H563        H  0.30827475  0.57583054  0.27984529     0.43140
H564        H  0.40923741  0.69690935  0.25455837     0.43100
C565        C  0.08523304  0.62088573  0.25299475    -0.05960
C566        C  0.10653521  0.59115428  0.24954972    -0.33390
C567        C  0.14193482  0.59087184  0.22451370     0.35860
C568        C  0.15688244  0.62078554  0.20294616    -0.06320
C569        C  0.13528991  0.65029436  0.20650318    -0.33290
C570        C  0.09984330  0.65043001  0.23007941     0.35760
H571        H  0.09620084  0.56823416  0.26752547     0.16130
O572        O  0.16187147  0.56140128  0.22255171    -0.60790
H573        H  0.14571418  0.67370470  0.19045290     0.16150
O574        O  0.07988083  0.67994010  0.23089808    -0.60890
H575        H  0.06346035  0.67934815  0.19868047     0.43140
H576        H  0.15333237  0.55033510  0.18922858     0.43100
C577        C  0.41221827  0.56171874  0.46583500    -0.05960
C578        C  0.38099853  0.55552466  0.43333269    -0.33390
C579        C  0.34526494  0.55487318  0.45614616     0.35860
C580        C  0.34124275  0.55967263  0.01174470    -0.06320
C581        C  0.37294247  0.55938034  0.04495904    -0.33290
C582        C  0.40861316  0.56079323  0.52208482     0.35760
H583        H  0.38362730  0.55581864  0.39002928     0.16130
O584        O  0.31419228  0.55350270  0.42345406    -0.60790
H585        H  0.37001866  0.56286191  0.08783363     0.16150
O586        O  0.43949284  0.56477795  0.55451976    -0.60890
H587        H  0.43877840  0.58851649  0.06591044     0.43140
H588        H  0.31130361  0.57630428  0.40779566     0.43100
C589        C  0.08996690  0.68956004  0.45023412    -0.06200
C590        C  0.09384737  0.69528402  0.50543831    -0.33390
C591        C  0.12927375  0.69397536  0.02960885     0.35860
C592        C  0.16085658  0.68720189  0.99792645    -0.06320
C593        C  0.15733149  0.68727434  0.44174008    -0.33290
C594        C  0.12192426  0.68850869  0.41763180     0.35760
H595        H  0.06917526  0.69618236  0.53072180     0.16130
O596        O  0.13198250  0.69416753  0.08448052    -0.60790
H597        H  0.18165642  0.68232254  0.41696487     0.16150
O598        O  0.11876367  0.68262234  0.36366817    -0.60890
H599        H  0.11449660  0.70496874  0.34701670     0.43140
H600        H  0.12626341  0.67091571  0.09589615     0.43100
C601        C  0.05566891  0.96902107  0.00956071    -0.05960
C602        C  0.05884836  0.99734206  0.04222535    -0.33390
C603        C  0.06005600  0.52942084  0.51932799     0.35860
C604        C  0.05788612  0.53335641  0.46304543    -0.06320
C605        C  0.56213518  0.00490779  0.43085311    -0.33290
C606        C  0.56072686  0.97280974  0.45370289     0.35760
H607        H  0.05618334  0.99503071  0.08538376     0.16130
O608        O  0.05889236  0.55666576  0.05242515    -0.60790
H609        H  0.56204806  0.00725505  0.38751131     0.16150
O610        O  0.56123087  0.94543741  0.42073669    -0.60890
H611        H  0.53625787  0.94522431  0.40293956     0.43140
H612        H  0.08513555  0.56470864  0.05418720     0.43100
C613        C  0.44225588  0.72009694  0.45354319    -0.05960
C614        C  0.43579983  0.72285730  0.50888422    -0.33390
C615        C  0.43538033  0.75425046  0.03355699     0.35860
C616        C  0.44153548  0.78341846  0.00253423    -0.06320
C617        C  0.94142595  0.78078013  0.44630190    -0.33290
C618        C  0.94187012  0.74946676  0.42169368     0.35760
H619        H  0.43477239  0.70055481  0.53389392     0.16130
O620        O  0.43244578  0.75574990  0.08835606    -0.60790
H621        H  0.94508995  0.80285245  0.42133431     0.16150
O622        O  0.94737380  0.74811202  0.36732953    -0.60890
H623        H  0.92184274  0.74662310  0.35155985     0.43140
H624        H  0.45765306  0.74946413  0.10242873     0.43100
C625        C  0.40993672  0.86567102  0.20437310    -0.05960
C626        C  0.40875481  0.86368116  0.26045649    -0.33390
C627        C  0.37411825  0.86348350  0.28713907     0.35860
C628        C  0.34025984  0.86598786  0.25772679    -0.06320
C629        C  0.34143143  0.86616978  0.20159321    -0.33290
C630        C  0.37603416  0.86563765  0.17490398     0.35760
H631        H  0.43460626  0.86316590  0.28353233     0.16130
O632        O  0.37357723  0.86160354  0.34210983    -0.60790
H633        H  0.31559745  0.86748978  0.17852883     0.16150
O634        O  0.37654380  0.86576777  0.11987161    -0.60890
H635        H  0.37926837  0.84192955  0.10965078     0.43140
H636        H  0.37030387  0.83751122  0.35069727     0.43100
C637        C  0.16252175  0.87707565  0.25157424    -0.05960
C638        C  0.13984410  0.90609231  0.25094258    -0.33390
C639        C  0.10391035  0.90603246  0.22692609     0.35860
C640        C  0.08998943  0.87653971  0.20319475    -0.06320
C641        C  0.11331755  0.84790394  0.20310809    -0.33290
C642        C  0.14898907  0.84804117  0.22656608     0.35760
H643        H  0.14948162  0.92856422  0.27060813     0.16130
O644        O  0.08256382  0.93473641  0.22781311    -0.60790
H645        H  0.10406321  0.82499304  0.18440527     0.16150
O646        O  0.17034170  0.81932071  0.22518282    -0.60890
H647        H  0.18633113  0.82173883  0.19292621     0.43140
H648        H  0.08966510  0.94735346  0.19499754     0.43100
C649        C  0.33868478  0.94037143  0.45643029    -0.05960
C650        C  0.34061322  0.94360288  0.51242986    -0.33390
C651        C  0.37553525  0.94475805  0.03835586     0.35860
C652        C  0.40816486  0.94207531  0.00745386    -0.06320
C653        C  0.40589221  0.94579288  0.45145168    -0.33290
C654        C  0.37101692  0.94513681  0.42559889     0.35760
H655        H  0.31535609  0.94131250  0.53624944     0.16130
O656        O  0.37782144  0.94490953  0.09345633    -0.60790
H657        H  0.43120079  0.94480237  0.42749307     0.16150
O658        O  0.36909263  0.94506568  0.37056639    -0.60890
H659        H  0.38216180  0.92435175  0.35915606     0.43140
H660        H  0.36037001  0.92753979  0.10674722     0.43100
C661        C  0.15973062  0.81327829  0.45648500    -0.05960
C662        C  0.12838744  0.81218565  0.42258899    -0.33390
C663        C  0.09242276  0.81278398  0.44447696     0.35860
C664        C  0.08806493  0.81403744  0.00056618    -0.06320
C665        C  0.11922657  0.80928849  0.03416562    -0.33290
C666        C  0.15525672  0.80937697  0.51227796     0.35760
H667        H  0.13165234  0.81528502  0.37960800     0.16130
O668        O  0.06200332  0.81667177  0.41096593    -0.60790
H669        H  0.11603671  0.80998773  0.07737511     0.16150
O670        O  0.18596800  0.80905141  0.54576744    -0.60890
H671        H  0.18770564  0.83210691  0.06003321     0.43140
H672        H  0.04937416  0.79462695  0.41122649     0.43100
C673        C  0.19353263  0.96898717  0.45035664    -0.05960
C674        C  0.18820523  0.97131409  0.50606207    -0.33390
C675        C  0.18820335  0.00244452  0.03135236     0.35860
C676        C  0.19399289  0.53179293  0.00069143    -0.06320
C677        C  0.19260532  0.52969964  0.44444330    -0.33290
C678        C  0.19217974  0.49859188  0.41912656     0.35760
H679        H  0.18797401  0.94886182  0.03078368     0.16130
O680        O  0.18762716  0.00328697  0.08632768    -0.60790
H681        H  0.19576144  0.55202930  0.41991807     0.16150
O682        O  0.19578716  0.49765123  0.36441428    -0.60890
H683        H  0.16980221  0.49549466  0.35050150     0.43140
H684        H  0.16101189  0.00761833  0.09569673     0.43100
C685        C  0.30739127  0.71783072  0.00849071    -0.05960
C686        C  0.31226008  0.72085956  0.45275677    -0.33390
C687        C  0.31268940  0.75237392  0.42787578     0.35860
C688        C  0.30764721  0.78144984  0.45895309    -0.06320
C689        C  0.30960324  0.77846317  0.51512073    -0.33290
C690        C  0.30971466  0.74694681  0.04003585     0.35760
H691        H  0.31190862  0.69879761  0.42774613     0.16130
O692        O  0.31306182  0.75400557  0.37291144    -0.60790
H693        H  0.30714372  0.80049710  0.03998394     0.16150
O694        O  0.30700394  0.74529038  0.09484887    -0.60890
H695        H  0.33313244  0.74192550  0.10781381     0.43140
H696        H  0.33967291  0.75794379  0.36337886     0.43100
O697        O  0.20557283  0.84856434  0.80777552    -0.82300
C698        C  0.30681649  0.92239361  0.93384480     0.97060
O699        O  0.28937360  0.93350210  0.89297882    -0.71410
O700        O  0.29681944  0.89808485  0.80670980    -0.75010
Al701      Al  0.25399443  0.91296138  0.84454960     1.48980
C702        C  0.30434117  0.87019830  0.78621375     0.92310
O703        O  0.28920914  0.81593710  0.88490776    -0.81230
O704        O  0.20354718  0.85600538  0.95714388    -0.74780
Al705      Al  0.24757201  0.83516893  0.84818415     1.90120
O706        O  0.27468353  0.83303341  0.96488627    -0.73850
O707        O  0.22662224  0.91789957  0.96037856    -0.73700
O708        O  0.29778467  0.89525059  0.95630917    -0.79360
O709        O  0.21223837  0.93336988  0.87874662    -0.77570
O710        O  0.25071657  0.87455687  0.88182387    -1.13700
O711        O  0.21844045  0.90083529  0.78923648    -0.72900
C712        C  0.19765307  0.87552764  0.78395010     0.97820
C713        C  0.29112291  0.81236401  0.93495149     0.94220
Al714      Al  0.25068739  0.87544619  0.95336356     1.55560
O715        O  0.28272458  0.84562053  0.79235850    -0.77520
C716        C  0.21019760  0.93786955  0.92853481     0.98390
C717        C  0.19373941  0.82888510  0.93610045     0.93270
O718        O  0.21170723  0.81620524  0.89747828    -0.82840
O719        O  0.04107269  0.64974441  0.80581032    -0.82300
C720        C  0.44436677  0.57876271  0.94225740     0.97060
O721        O  0.46204594  0.56618969  0.90314846    -0.71410
O722        O  0.45373966  0.59740411  0.81226941    -0.75010
Al723      Al  0.49686050  0.58539132  0.85219938     1.48980
C724        C  0.44347667  0.62436267  0.79005370     0.92310
O725        O  0.45900176  0.68323207  0.88301208    -0.81230
O726        O  0.04684106  0.64659173  0.95669137    -0.74780
Al727      Al  0.00002062  0.66340115  0.84683059     1.90120
O728        O  0.47592708  0.66921045  0.96404698    -0.73850
O729        O  0.02431659  0.58459791  0.96832723    -0.73700
O730        O  0.45315444  0.60671623  0.96161315    -0.79360
O731        O  0.53949252  0.56747368  0.88868591    -0.77570
O732        O  0.49895316  0.62515430  0.88477602    -1.13700
O733        O  0.03161469  0.59623556  0.79559292    -0.72900
C734        C  0.05045707  0.62223494  0.78581121     0.97820
C735        C  0.45847918  0.68861645  0.93250046     0.94220
Al736      Al  0.99996299  0.62666497  0.95630551     1.55560
O737        O  0.46329541  0.65028985  0.79446379    -0.77520
C738        C  0.04134030  0.56414291  0.93881810     0.98390
C739        C  0.05590199  0.67300781  0.93212592     0.93270
O740        O  0.03700453  0.68425637  0.89259343    -0.82840
O741        O  0.45267107  0.89811414  0.65514942    -0.82300
C742        C  0.05452786  0.82986843  0.52260948     0.97060
O743        O  0.03727728  0.81682359  0.56173156    -0.71410
O744        O  0.04495156  0.84843389  0.65069589    -0.75010
Al745      Al  0.00220166  0.83548849  0.61243563     1.48980
C746        C  0.05315241  0.87507448  0.67429122     0.92310
O747        O  0.53624806  0.93378366  0.58174162    -0.81230
O748        O  0.44976274  0.89708570  0.50660001    -0.74780
Al749      Al  0.49492659  0.91325097  0.61679095     1.90120
O750        O  0.02071442  0.91937453  0.50049048    -0.73850
O751        O  0.47333979  0.83509718  0.49685428    -0.73700
O752        O  0.04428550  0.85743801  0.50231736    -0.79360
O753        O  0.96007158  0.81677133  0.57699737    -0.77570
O754        O  0.49806874  0.87529154  0.57917944    -1.13700
O755        O  0.46794572  0.84557434  0.66977844    -0.72900
C756        C  0.44582621  0.87006639  0.67594066     0.97820
C757        C  0.03804100  0.93846792  0.53180526     0.94220
Al758      Al  0.49704275  0.87710875  0.50781250     1.55560
O759        O  0.03111262  0.90004380  0.67145045    -0.77520
C760        C  0.45761480  0.81396493  0.52689605     0.98390
C761        C  0.44073426  0.92404380  0.52921381     0.93270
O762        O  0.45879434  0.93481113  0.56930771    -0.82840
O763        O  0.29103344  0.59736330  0.65836723    -0.82300
C764        C  0.19388648  0.67070151  0.52167511     0.97060
O765        O  0.21001942  0.68237273  0.56291221    -0.71410
O766        O  0.20280139  0.64931855  0.65216442    -0.75010
Al767      Al  0.24541230  0.66272933  0.61372215     1.48980
C768        C  0.19310781  0.62200491  0.67305665     0.92310
O769        O  0.21030927  0.56583513  0.57525183    -0.81230
O770        O  0.29916333  0.60417493  0.50857795    -0.74780
Al771      Al  0.25058334  0.58458391  0.61465148     1.90120
O772        O  0.22871642  0.58188968  0.49610513    -0.73850
O773        O  0.27560393  0.66638679  0.49885961    -0.73700
O774        O  0.20490401  0.64395517  0.50016759    -0.79360
O775        O  0.28742185  0.68250964  0.58009238    -0.77570
O776        O  0.24927519  0.62383059  0.57893818    -1.13700
O777        O  0.28037210  0.65088209  0.66988805    -0.72900
C778        C  0.29970307  0.62479668  0.67918069     0.97820
C779        C  0.21049626  0.56200140  0.52529206     0.94220
Al780      Al  0.25191187  0.62405806  0.50740111     1.55560
O781        O  0.21310242  0.59612562  0.66681761    -0.77520
C782        C  0.29071845  0.68670184  0.53044135     0.98390
C783        C  0.30762217  0.57670625  0.53091615     0.93270
O784        O  0.28830358  0.56465734  0.56892391    -0.82840
C785        C  0.33448941  0.62631885  0.71201916    -0.05960
C786        C  0.35822283  0.65418068  0.70781595    -0.33390
C787        C  0.39396278  0.65397415  0.73210542     0.35860
C788        C  0.40665190  0.62548418  0.76118901    -0.06320
C789        C  0.38230838  0.59801868  0.76619268    -0.33290
C790        C  0.34672108  0.59832329  0.74222660     0.35760
H791        H  0.34961515  0.67574230  0.68396241     0.16130
O792        O  0.41658154  0.68132769  0.72559063    -0.60790
H793        H  0.39069796  0.57605395  0.78919593     0.16150
O794        O  0.32417435  0.57086712  0.74828322    -0.60890
H795        H  0.30827469  0.57583060  0.77984556     0.43140
H796        H  0.40923752  0.69690926  0.75455807     0.43100
C797        C  0.08523308  0.62088553  0.75299473    -0.05960
C798        C  0.10653531  0.59115411  0.74954984    -0.33390
C799        C  0.14193491  0.59087168  0.72451380     0.35860
C800        C  0.15688246  0.62078537  0.70294611    -0.06320
C801        C  0.13528987  0.65029416  0.70650298    -0.33290
C802        C  0.09984326  0.65042980  0.73007924     0.35760
H803        H  0.09620099  0.56823401  0.76752572     0.16130
O804        O  0.16187163  0.56140115  0.72255197    -0.60790
H805        H  0.14571409  0.67370449  0.69045259     0.16150
O806        O  0.07988073  0.67993985  0.73089777    -0.60890
H807        H  0.06346022  0.67934780  0.69868019     0.43140
H808        H  0.15333255  0.55033489  0.68922890     0.43100
C809        C  0.41221817  0.56171874  0.96583489    -0.05960
C810        C  0.38099842  0.55552479  0.93333255    -0.33390
C811        C  0.34526481  0.55487341  0.95614599     0.35860
C812        C  0.34124288  0.55967245  0.51174486    -0.06320
C813        C  0.37294260  0.55938030  0.54495918    -0.33290
C814        C  0.40861304  0.56079318  0.02208471     0.35760
H815        H  0.38362719  0.55581880  0.89002914     0.16130
O816        O  0.31419216  0.55350305  0.92345386    -0.60790
H817        H  0.37001879  0.56286191  0.58783376     0.16150
O818        O  0.43949272  0.56477779  0.05451967    -0.60890
H819        H  0.43877842  0.58851666  0.56591050     0.43140
H820        H  0.31130359  0.57630465  0.90779550     0.43100
C821        C  0.08996680  0.68956001  0.95023435    -0.06200
C822        C  0.09384721  0.69528385  0.00543859    -0.33390
C823        C  0.12927391  0.69397542  0.52960856     0.35860
C824        C  0.16085669  0.68720167  0.49792619    -0.06320
C825        C  0.15733140  0.68727472  0.94174033    -0.33290
C826        C  0.12192417  0.68850895  0.91763204     0.35760
H827        H  0.06917509  0.69618198  0.03072207     0.16130
O828        O  0.13198269  0.69416776  0.58448023    -0.60790
H829        H  0.18165638  0.68232311  0.91696510     0.16150
O830        O  0.11876364  0.68262277  0.86366835    -0.60890
H831        H  0.11449645  0.70496920  0.84701707     0.43140
H832        H  0.12626340  0.67091603  0.59589606     0.43100
C833        C  0.05566889  0.96902113  0.50956059    -0.05960
C834        C  0.05884836  0.99734211  0.54222524    -0.33390
C835        C  0.06005607  0.52942077  0.01932807     0.35860
C836        C  0.05788619  0.53335632  0.96304550    -0.06320
C837        C  0.56213524  0.00490770  0.93085320    -0.33290
C838        C  0.56072693  0.97280967  0.95370300     0.35760
H839        H  0.05618336  0.99503075  0.58538366     0.16130
O840        O  0.05889228  0.55666581  0.55242510    -0.60790
H841        H  0.56204814  0.00725495  0.88751139     0.16150
O842        O  0.56123097  0.94543732  0.92073681    -0.60890
H843        H  0.53625798  0.94522422  0.90293965     0.43140
H844        H  0.08513547  0.56470870  0.55418716     0.43100
C845        C  0.44225589  0.72009693  0.95354300    -0.05960
C846        C  0.43579969  0.72285730  0.00888399    -0.33390
C847        C  0.43538047  0.75425046  0.53355722     0.35860
C848        C  0.44153547  0.78341847  0.50253443    -0.06320
C849        C  0.94142632  0.78078007  0.94630160    -0.33290
C850        C  0.94187052  0.74946670  0.92169340     0.35760
H851        H  0.43477213  0.70055481  0.03389369     0.16130
O852        O  0.43244610  0.75574988  0.58835631    -0.60790
H853        H  0.94509054  0.80285237  0.92133402     0.16150
O854        O  0.94737454  0.74811193  0.86732932    -0.60890
H855        H  0.92184357  0.74662314  0.85155931     0.43140
H856        H  0.45765345  0.74946418  0.60242881     0.43100
C857        C  0.40993676  0.86567111  0.70437311    -0.05960
C858        C  0.40875486  0.86368120  0.76045650    -0.33390
C859        C  0.37411829  0.86348356  0.78713907     0.35860
C860        C  0.34025988  0.86598799  0.75772680    -0.06320
C861        C  0.34143148  0.86616996  0.70159322    -0.33290
C862        C  0.37603421  0.86563781  0.67490399     0.35760
H863        H  0.43460630  0.86316589  0.78353234     0.16130
O864        O  0.37357726  0.86160355  0.84210983    -0.60790
H865        H  0.31559750  0.86749001  0.67852884     0.16150
O866        O  0.37654384  0.86576797  0.61987162    -0.60890
H867        H  0.37926839  0.84192975  0.60965074     0.43140
H868        H  0.37030387  0.83751123  0.85069721     0.43100
C869        C  0.16252181  0.87707580  0.75157420    -0.05960
C870        C  0.13984416  0.90609246  0.75094249    -0.33390
C871        C  0.10391041  0.90603260  0.72692599     0.35860
C872        C  0.08998949  0.87653985  0.70319469    -0.06320
C873        C  0.11331760  0.84790408  0.70310809    -0.33290
C874        C  0.14898911  0.84804131  0.72656608     0.35760
H875        H  0.14948169  0.92856439  0.77060800     0.16130
O876        O  0.08256390  0.93473657  0.72781296    -0.60790
H877        H  0.10406326  0.82499316  0.68440530     0.16150
O878        O  0.17034174  0.81932084  0.72518287    -0.60890
H879        H  0.18633118  0.82173894  0.69292626     0.43140
H880        H  0.08966517  0.94735358  0.69499736     0.43100
C881        C  0.33868481  0.94037159  0.95643029    -0.05960
C882        C  0.34061325  0.94360303  0.01242986    -0.33390
C883        C  0.37553522  0.94475799  0.53835585     0.35860
C884        C  0.40816483  0.94207530  0.50745384    -0.06320
C885        C  0.40589225  0.94579291  0.95145171    -0.33290
C886        C  0.37101697  0.94513692  0.92559891     0.35760
H887        H  0.31535612  0.94131267  0.03624945     0.16130
O888        O  0.37782142  0.94490951  0.59345632    -0.60790
H889        H  0.43120083  0.94480236  0.92749309     0.16150
O890        O  0.36909269  0.94506580  0.87056641    -0.60890
H891        H  0.38216169  0.92435178  0.85915609     0.43140
H892        H  0.36036983  0.92753994  0.60674730     0.43100
C893        C  0.15973067  0.81327843  0.95648501    -0.05960
C894        C  0.12838750  0.81218573  0.92258900    -0.33390
C895        C  0.09242281  0.81278400  0.94447697     0.35860
C896        C  0.08806488  0.81403742  0.50056618    -0.06320
C897        C  0.11922651  0.80928840  0.53416561    -0.33290
C898        C  0.15525678  0.80937713  0.01227797     0.35760
H899        H  0.13165238  0.81528509  0.87960801     0.16130
O900        O  0.06200336  0.81667172  0.91096594    -0.60790
H901        H  0.11603665  0.80998763  0.57737511     0.16150
O902        O  0.18596806  0.80905164  0.04576745    -0.60890
H903        H  0.18770564  0.83210668  0.56003322     0.43140
H904        H  0.04937424  0.79462688  0.91122653     0.43100
C905        C  0.19353263  0.96898738  0.95035651    -0.05960
C906        C  0.18820518  0.97131431  0.00606193    -0.33390
C907        C  0.18820343  0.00244430  0.53135251     0.35860
C908        C  0.19399297  0.53179271  0.50069152    -0.06320
C909        C  0.19260529  0.52969985  0.94444321    -0.33290
C910        C  0.19217974  0.49859210  0.91912647     0.35760
H911        H  0.18797410  0.94886160  0.53078382     0.16130
O912        O  0.18762731  0.00328675  0.58632784    -0.60790
H913        H  0.19576143  0.55202951  0.91991798     0.16150
O914        O  0.19578722  0.49765144  0.86441420    -0.60890
H915        H  0.16980227  0.49549488  0.85050137     0.43140
H916        H  0.16101206  0.00761810  0.59569696     0.43100
C917        C  0.30739131  0.71783052  0.50849064    -0.05960
C918        C  0.31226008  0.72085975  0.95275684    -0.33390
C919        C  0.31268941  0.75237412  0.92787585     0.35860
C920        C  0.30764720  0.78145004  0.95895316    -0.06320
C921        C  0.30960320  0.77846337  0.01512080    -0.33290
C922        C  0.30971472  0.74694661  0.54003578     0.35760
H923        H  0.31190863  0.69879780  0.92774621     0.16130
O924        O  0.31306187  0.75400577  0.87291151    -0.60790
H925        H  0.30714378  0.80049690  0.53998387     0.16150
O926        O  0.30700404  0.74529019  0.59484880    -0.60890
H927        H  0.33313254  0.74192529  0.60781371     0.43140
H928        H  0.33967297  0.75794399  0.86337897     0.43100
O929        O  0.70557278  0.34856421  0.30777553    -0.82300
C930        C  0.80681646  0.42239346  0.43384481     0.97060
O931        O  0.78937355  0.43350196  0.39297886    -0.71410
O932        O  0.79681938  0.39808472  0.30670981    -0.75010
Al933      Al  0.75399438  0.41296124  0.34454965     1.48980
C934        C  0.80434111  0.37019818  0.28621376     0.92310
O935        O  0.78920910  0.31593694  0.38490773    -0.81230
O936        O  0.70354717  0.35600521  0.45714393    -0.74780
Al937      Al  0.74757196  0.33516878  0.34818415     1.90120
O938        O  0.77468353  0.33303324  0.46488626    -0.73850
O939        O  0.72662223  0.41789940  0.46037863    -0.73700
O940        O  0.79778466  0.39525043  0.45630917    -0.79360
O941        O  0.71223832  0.43336972  0.37874672    -0.77570
O942        O  0.75071653  0.37455672  0.38182390    -1.13700
O943        O  0.71844038  0.40083516  0.28923654    -0.72900
C944        C  0.69765301  0.37552751  0.28395014     0.97820
C945        C  0.79112289  0.31236384  0.43495146     0.94220
Al946      Al  0.75068738  0.37544602  0.45336359     1.55560
O947        O  0.78272453  0.34562040  0.29235851    -0.77520
C948        C  0.71019757  0.43786938  0.42853491     0.98390
C949        C  0.69373938  0.32888495  0.43610048     0.93270
O950        O  0.71170718  0.31620509  0.39747829    -0.82840
O951        O  0.54107260  0.14974458  0.30581028    -0.82300
C952        C  0.94436682  0.07876277  0.44225744     0.97060
O953        O  0.96204596  0.06618977  0.40314845    -0.71410
O954        O  0.95373965  0.09740421  0.31226941    -0.75010
Al955      Al  0.99686050  0.08539142  0.35219936     1.48980
C956        C  0.94347664  0.12436277  0.29005373     0.92310
O957        O  0.95900176  0.18323217  0.38301219    -0.81230
O958        O  0.54684107  0.14659184  0.45669134    -0.74780
Al959      Al  0.50002056  0.16340131  0.34683064     1.90120
O960        O  0.97592712  0.16921050  0.46404706    -0.73850
O961        O  0.52431660  0.08459802  0.46832721    -0.73700
O962        O  0.95315449  0.10671629  0.46161320    -0.79360
O963        O  0.03949252  0.06747377  0.38868585    -0.77570
O964        O  0.99895316  0.12515439  0.38477603    -1.13700
O965        O  0.53161467  0.09623572  0.29559291    -0.72900
C966        C  0.55045701  0.12223511  0.28581119     0.97820
C967        C  0.95847919  0.18861651  0.43250058     0.94220
Al968      Al  0.49996300  0.12666508  0.45630553     1.55560
O969        O  0.96329535  0.15028997  0.29446387    -0.77520
C970        C  0.54134028  0.06414301  0.43881805     0.98390
C971        C  0.55590200  0.17300791  0.43212586     0.93270
O972        O  0.53700451  0.18425650  0.39259343    -0.82840
O973        O  0.95267104  0.39811405  0.15514946    -0.82300
C974        C  0.55452790  0.32986844  0.02260947     0.97060
O975        O  0.53727731  0.31682357  0.06173152    -0.71410
O976        O  0.54495149  0.34843379  0.15069592    -0.75010
Al977      Al  0.50220164  0.33548841  0.11243556     1.48980
C978        C  0.55315235  0.37507438  0.17429127     0.92310
O979        O  0.03624805  0.43378360  0.08174171    -0.81230
O980        O  0.94976274  0.39708568  0.00660001    -0.74780
Al981      Al  0.99492656  0.41325089  0.11679101     1.90120
O982        O  0.52071442  0.41937452  0.00049056    -0.73850
O983        O  0.97333980  0.33509717  0.99685421    -0.73700
O984        O  0.54428552  0.35743802  0.00231738    -0.79360
O985        O  0.46007160  0.31677124  0.07699719    -0.77570
O986        O  0.99806871  0.37529147  0.07917945    -1.13700
O987        O  0.96794563  0.34557423  0.16977835    -0.72900
C988        C  0.94582615  0.37006629  0.17594063     0.97820
C989        C  0.53804100  0.43846790  0.03180536     0.94220
Al990      Al  0.99704275  0.37710873  0.00781251     1.55560
O991        O  0.53111258  0.40004371  0.17145049    -0.77520
C992        C  0.95761480  0.31396490  0.02689592     0.98390
C993        C  0.94073426  0.42404377  0.02921383     0.93270
O994        O  0.95879433  0.43481108  0.06930778    -0.82840
O995        O  0.79103339  0.09736341  0.15836718    -0.82300
C996        C  0.69388641  0.17070172  0.02167524     0.97060
O997        O  0.71001938  0.18237292  0.06291233    -0.71410
O998        O  0.70280138  0.14931871  0.15216450    -0.75010
Al999      Al  0.74541229  0.16272949  0.11372219     1.48980
C1000       C  0.69310778  0.12200506  0.17305668     0.92310
O1001       O  0.71030918  0.06583531  0.07525177    -0.81230
O1002       O  0.79916323  0.10417512  0.00857787    -0.74780
Al1003     Al  0.75058327  0.08458407  0.11465142     1.90120
O1004       O  0.72871631  0.08188990  0.99610507    -0.73850
O1005       O  0.77560386  0.16638699  0.99885963    -0.73700
O1006       O  0.70490393  0.14395539  0.00016765    -0.79360
O1007       O  0.78742182  0.18250980  0.08009241    -0.77570
O1008       O  0.74927513  0.12383076  0.07893817    -1.13700
O1009       O  0.78037211  0.15088220  0.16988804    -0.72900
C1010       C  0.79970305  0.12479678  0.17918065     0.97820
C1011       C  0.71049616  0.06200161  0.02529199     0.94220
Al1012     Al  0.75191178  0.12405827  0.00740109     1.55560
O1013       O  0.71310236  0.09612576  0.16681757    -0.77520
C1014       C  0.79071841  0.18670201  0.03044138     0.98390
C1015       C  0.80762207  0.07670642  0.03091603     0.93270
O1016       O  0.78830349  0.06465751  0.06892380    -0.82840
C1017       C  0.83448940  0.12631892  0.21201912    -0.05960
C1018       C  0.85822277  0.15418080  0.20781605    -0.33390
C1019       C  0.89396271  0.15397428  0.23210554     0.35860
C1020       C  0.90665187  0.12548428  0.26118902    -0.06320
C1021       C  0.88230841  0.09801873  0.26619254    -0.33290
C1022       C  0.84672113  0.09832332  0.24222642     0.35760
H1023       H  0.84961506  0.17574245  0.18396262     0.16130
O1024       O  0.91658141  0.18132787  0.22559091    -0.60790
H1025       H  0.89069803  0.07605397  0.28919569     0.16150
O1026       O  0.82417444  0.07086710  0.24828289    -0.60890
H1027       H  0.80827477  0.07583050  0.27984523     0.43140
H1028       H  0.90923735  0.19690937  0.25455842     0.43100
C1029       C  0.58523304  0.12088572  0.25299474    -0.05960
C1030       C  0.60653521  0.09115427  0.24954972    -0.33390
C1031       C  0.64193482  0.09087183  0.22451369     0.35860
C1032       C  0.65688244  0.12078553  0.20294614    -0.06320
C1033       C  0.63528991  0.15029435  0.20650316    -0.33290
C1034       C  0.59984330  0.15043000  0.23007941     0.35760
H1035       H  0.59620084  0.06823415  0.26752547     0.16130
O1036       O  0.66187147  0.06140127  0.22255170    -0.60790
H1037       H  0.64571418  0.17370469  0.19045288     0.16150
O1038       O  0.57988083  0.17994009  0.23089808    -0.60890
H1039       H  0.56346034  0.17934815  0.19868047     0.43140
H1040       H  0.65333237  0.05033509  0.18922856     0.43100
C1041       C  0.91221826  0.06171876  0.46583499    -0.05960
C1042       C  0.88099853  0.05552469  0.43333268    -0.33390
C1043       C  0.84526493  0.05487321  0.45614615     0.35860
C1044       C  0.84124275  0.05967260  0.01174469    -0.06320
C1045       C  0.87294247  0.05938032  0.04495903    -0.33290
C1046       C  0.90861316  0.06079324  0.52208481     0.35760
H1047       H  0.88362729  0.05581867  0.39002927     0.16130
O1048       O  0.81419228  0.05350273  0.42345405    -0.60790
H1049       H  0.87001865  0.06286190  0.08783362     0.16150
O1050       O  0.93949283  0.06477796  0.55451975    -0.60890
H1051       H  0.93877840  0.08851648  0.06591043     0.43140
H1052       H  0.81130361  0.07630432  0.40779566     0.43100
C1053       C  0.58996689  0.18956004  0.45023413    -0.06200
C1054       C  0.59384736  0.19528403  0.50543833    -0.33390
C1055       C  0.62927376  0.19397536  0.02960883     0.35860
C1056       C  0.66085659  0.18720187  0.99792642    -0.06320
C1057       C  0.65733149  0.18727437  0.44174010    -0.33290
C1058       C  0.62192426  0.18850871  0.41763182     0.35760
H1059       H  0.56917525  0.19618235  0.53072181     0.16130
O1060       O  0.63198251  0.19416753  0.08448050    -0.60790
H1061       H  0.68165642  0.18232257  0.41696489     0.16150
O1062       O  0.61876367  0.18262236  0.36366818    -0.60890
H1063       H  0.61449660  0.20496876  0.34701672     0.43140
H1064       H  0.62626342  0.17091572  0.09589613     0.43100
C1065       C  0.55566891  0.46902110  0.00956072    -0.05960
C1066       C  0.55884835  0.49734208  0.04222536    -0.33390
C1067       C  0.56005603  0.02942084  0.51932800     0.35860
C1068       C  0.55788614  0.03335640  0.46304543    -0.06320
C1069       C  0.06213516  0.50490779  0.43085311    -0.33290
C1070       C  0.06072684  0.47280975  0.45370289     0.35760
H1071       H  0.55618333  0.49503073  0.08538377     0.16130
O1072       O  0.55889234  0.05666576  0.05242515    -0.60790
H1073       H  0.06204805  0.50725505  0.38751130     0.16150
O1074       O  0.06123087  0.44543741  0.42073668    -0.60890
H1075       H  0.03625786  0.44522431  0.40293955     0.43140
H1076       H  0.58513553  0.06470864  0.05418720     0.43100
C1077       C  0.94225585  0.22009695  0.45354322    -0.05960
C1078       C  0.93579983  0.22285730  0.50888426    -0.33390
C1079       C  0.93538031  0.25425046  0.03355695     0.35860
C1080       C  0.94153550  0.28341845  0.00253420    -0.06320
C1081       C  0.44142593  0.28078011  0.44630192    -0.33290
C1082       C  0.44187010  0.24946675  0.42169370     0.35760
H1083       H  0.93477243  0.20055481  0.53389396     0.16130
O1084       O  0.93244572  0.25574990  0.08835601    -0.60790
H1085       H  0.44508992  0.30285243  0.42133433     0.16150
O1086       O  0.44737378  0.24811200  0.36732954    -0.60890
H1087       H  0.42184271  0.24662308  0.35155987     0.43140
H1088       H  0.95765299  0.24946412  0.10242873     0.43100
C1089       C  0.90993670  0.36567102  0.20437310    -0.05960
C1090       C  0.90875480  0.36368116  0.26045649    -0.33390
C1091       C  0.87411824  0.36348350  0.28713907     0.35860
C1092       C  0.84025982  0.36598788  0.25772680    -0.06320
C1093       C  0.84143142  0.36616981  0.20159322    -0.33290
C1094       C  0.87603415  0.36563767  0.17490398     0.35760
H1095       H  0.93460625  0.36316588  0.28353232     0.16130
O1096       O  0.87357722  0.36160354  0.34210983    -0.60790
H1097       H  0.81559743  0.36748982  0.17852885     0.16150
O1098       O  0.87654378  0.36576780  0.11987162    -0.60890
H1099       H  0.87926834  0.34192958  0.10965077     0.43140
H1100       H  0.87030385  0.33751122  0.35069726     0.43100
C1101       C  0.66252175  0.37707568  0.25157425    -0.05960
C1102       C  0.63984409  0.40609233  0.25094260    -0.33390
C1103       C  0.60391034  0.40603248  0.22692610     0.35860
C1104       C  0.58998942  0.37653973  0.20319475    -0.06320
C1105       C  0.61331755  0.34790397  0.20310809    -0.33290
C1106       C  0.64898906  0.34804120  0.22656608     0.35760
H1107       H  0.64948161  0.42856425  0.27060815     0.16130
O1108       O  0.58256381  0.43473643  0.22781312    -0.60790
H1109       H  0.60406322  0.32499306  0.18440526     0.16150
O1110       O  0.67034170  0.31932074  0.22518282    -0.60890
H1111       H  0.68633114  0.32173887  0.19292621     0.43140
H1112       H  0.58966508  0.44735348  0.19499756     0.43100
C1113       C  0.83868477  0.44037145  0.45643030    -0.05960
C1114       C  0.84061322  0.44360291  0.51242986    -0.33390
C1115       C  0.87553525  0.44475805  0.03835585     0.35860
C1116       C  0.90816486  0.44207531  0.00745385    -0.06320
C1117       C  0.90589220  0.44579288  0.45145168    -0.33290
C1118       C  0.87101692  0.44513682  0.42559889     0.35760
H1119       H  0.81535609  0.44131253  0.53624945     0.16130
O1120       O  0.87782143  0.44490954  0.09345631    -0.60790
H1121       H  0.93120078  0.44480236  0.42749306     0.16150
O1122       O  0.86909263  0.44506569  0.37056640    -0.60890
H1123       H  0.88216177  0.42435174  0.35915606     0.43140
H1124       H  0.86036999  0.42753981  0.10674721     0.43100
C1125       C  0.65973062  0.31327830  0.45648502    -0.05960
C1126       C  0.62838744  0.31218564  0.42258901    -0.33390
C1127       C  0.59242276  0.31278396  0.44447698     0.35860
C1128       C  0.58806493  0.31403746  0.00056618    -0.06320
C1129       C  0.61922657  0.30928849  0.03416562    -0.33290
C1130       C  0.65525672  0.30937699  0.51227798     0.35760
H1131       H  0.63165233  0.31528501  0.37960802     0.16130
O1132       O  0.56200332  0.31667173  0.41096595    -0.60790
H1133       H  0.61603671  0.30998773  0.07737511     0.16150
O1134       O  0.68596800  0.30905146  0.54576746    -0.60890
H1135       H  0.68770565  0.33210689  0.06003320     0.43140
H1136       H  0.54937417  0.29462690  0.41122651     0.43100
C1137       C  0.69353261  0.46898720  0.45035664    -0.05960
C1138       C  0.68820521  0.47131412  0.50606207    -0.33390
C1139       C  0.68820337  0.50244449  0.03135237     0.35860
C1140       C  0.69399288  0.03179292  0.00069142    -0.06320
C1141       C  0.69260533  0.02969966  0.44444330    -0.33290
C1142       C  0.69217974  0.99859190  0.41912656     0.35760
H1143       H  0.68797403  0.44886179  0.03078369     0.16130
O1144       O  0.68762719  0.50328695  0.08632770    -0.60790
H1145       H  0.69576144  0.05202932  0.41991807     0.16150
O1146       O  0.69578717  0.99765125  0.36441428    -0.60890
H1147       H  0.66980222  0.99549467  0.35050150     0.43140
H1148       H  0.66101193  0.50761830  0.09569676     0.43100
C1149       C  0.80739128  0.21783070  0.00849069    -0.05960
C1150       C  0.81226007  0.22085958  0.45275679    -0.33390
C1151       C  0.81268939  0.25237395  0.42787580     0.35860
C1152       C  0.80764719  0.28144987  0.45895311    -0.06320
C1153       C  0.80960322  0.27846319  0.51512075    -0.33290
C1154       C  0.80971467  0.24694679  0.04003583     0.35760
H1155       H  0.81190862  0.19879763  0.42774615     0.16130
O1156       O  0.81306181  0.25400560  0.37291146    -0.60790
H1157       H  0.80714374  0.30049708  0.03998392     0.16150
O1158       O  0.80700396  0.24529036  0.09484885    -0.60890
H1159       H  0.83313246  0.24192548  0.10781379     0.43140
H1160       H  0.83967290  0.25794382  0.36337889     0.43100
O1161       O  0.70557283  0.34856432  0.80777551    -0.82300
C1162       C  0.80681649  0.42239360  0.93384478     0.97060
O1163       O  0.78937360  0.43350209  0.89297881    -0.71410
O1164       O  0.79681944  0.39808483  0.80670978    -0.75010
Al1165     Al  0.75399443  0.41296136  0.84454959     1.48980
C1166       C  0.80434117  0.37019829  0.78621374     0.92310
O1167       O  0.78920915  0.31593708  0.88490774    -0.81230
O1168       O  0.70354719  0.35600536  0.95714387    -0.74780
Al1169     Al  0.74757201  0.33516891  0.84818414     1.90120
O1170       O  0.77468355  0.33303339  0.96488626    -0.73850
O1171       O  0.72662225  0.41789955  0.96037856    -0.73700
O1172       O  0.79778468  0.39525057  0.95630914    -0.79360
O1173       O  0.71223837  0.43336986  0.87874662    -0.77570
O1174       O  0.75071657  0.37455685  0.88182386    -1.13700
O1175       O  0.71844044  0.40083527  0.78923648    -0.72900
C1176       C  0.69765307  0.37552762  0.78395009     0.97820
C1177       C  0.79112292  0.31236399  0.93495147     0.94220
Al1178     Al  0.75068740  0.37544617  0.95336355     1.55560
O1179       O  0.78272458  0.34562052  0.79235850    -0.77520
C1180       C  0.71019760  0.43786952  0.92853481     0.98390
C1181       C  0.69373942  0.32888508  0.93610045     0.93270
O1182       O  0.71170723  0.31620522  0.89747827    -0.82840
O1183       O  0.54107268  0.14974442  0.80581031    -0.82300
C1184       C  0.94436677  0.07876269  0.94225739     0.97060
O1185       O  0.96204594  0.06618966  0.90314846    -0.71410
O1186       O  0.95373966  0.09740409  0.81226941    -0.75010
Al1187     Al  0.99686050  0.08539130  0.85219938     1.48980
C1188       C  0.94347668  0.12436265  0.79005369     0.92310
O1189       O  0.95900177  0.18323204  0.88301207    -0.81230
O1190       O  0.54684106  0.14659173  0.95669136    -0.74780
Al1191     Al  0.50002062  0.16340116  0.84683059     1.90120
O1192       O  0.97592709  0.16921043  0.96404698    -0.73850
O1193       O  0.52431658  0.08459792  0.96832723    -0.73700
O1194       O  0.95315444  0.10671621  0.96161315    -0.79360
O1195       O  0.03949252  0.06747366  0.88868590    -0.77570
O1196       O  0.99895317  0.12515428  0.88477602    -1.13700
O1197       O  0.53161469  0.09623557  0.79559292    -0.72900
C1198       C  0.55045706  0.12223495  0.78581121     0.97820
C1199       C  0.95847919  0.18861643  0.93250044     0.94220
Al1200     Al  0.49996299  0.12666498  0.95630551     1.55560
O1201       O  0.96329543  0.15028983  0.79446378    -0.77520
C1202       C  0.54134028  0.06414291  0.93881810     0.98390
C1203       C  0.55590198  0.17300782  0.93212591     0.93270
O1204       O  0.53700452  0.18425638  0.89259343    -0.82840
O1205       O  0.95267107  0.39811414  0.65514941    -0.82300
C1206       C  0.55452785  0.32986841  0.52260949     0.97060
O1207       O  0.53727727  0.31682357  0.56173157    -0.71410
O1208       O  0.54495155  0.34843387  0.65069590    -0.75010
Al1209     Al  0.50220165  0.33548848  0.61243564     1.48980
C1210       C  0.55315240  0.37507447  0.67429123     0.92310
O1211       O  0.03624806  0.43378365  0.58174161    -0.81230
O1212       O  0.94976273  0.39708570  0.50660001    -0.74780
Al1213     Al  0.99492659  0.41325097  0.61679094     1.90120
O1214       O  0.52071441  0.41937451  0.50049048    -0.73850
O1215       O  0.97333978  0.33509718  0.49685429    -0.73700
O1216       O  0.54428548  0.35743799  0.50231737    -0.79360
O1217       O  0.46007157  0.31677131  0.57699739    -0.77570
O1218       O  0.99806874  0.37529154  0.57917944    -1.13700
O1219       O  0.96794573  0.34557435  0.66977846    -0.72900
C1220       C  0.94582622  0.37006639  0.67594065     0.97820
C1221       C  0.53804099  0.43846790  0.53180525     0.94220
Al1222     Al  0.99704274  0.37710875  0.50781250     1.55560
O1223       O  0.53111262  0.40004379  0.67145045    -0.77520
C1224       C  0.95761478  0.31396493  0.52689608     0.98390
C1225       C  0.94073425  0.42404380  0.52921380     0.93270
O1226       O  0.95879434  0.43481113  0.56930770    -0.82840
O1227       O  0.79103344  0.09736331  0.65836724    -0.82300
C1228       C  0.69388647  0.17070153  0.52167514     0.97060
O1229       O  0.71001941  0.18237275  0.56291223    -0.71410
O1230       O  0.70280139  0.14931857  0.65216444    -0.75010
Al1231     Al  0.74541230  0.16272935  0.61372216     1.48980
C1232       C  0.69310781  0.12200492  0.67305667     0.92310
O1233       O  0.71030926  0.06583515  0.57525184    -0.81230
O1234       O  0.79916332  0.10417496  0.50857796    -0.74780
Al1235     Al  0.75058334  0.08458393  0.61465149     1.90120
O1236       O  0.72871642  0.08188970  0.49610513    -0.73850
O1237       O  0.77560392  0.16638682  0.49885962    -0.73700
O1238       O  0.70490400  0.14395519  0.50016761    -0.79360
O1239       O  0.78742185  0.18250966  0.58009240    -0.77570
O1240       O  0.74927518  0.12383061  0.57893819    -1.13700
O1241       O  0.78037211  0.15088210  0.66988806    -0.72900
C1242       C  0.79970308  0.12479669  0.67918069     0.97820
C1243       C  0.71049626  0.06200142  0.52529206     0.94220
Al1244     Al  0.75191186  0.12405808  0.50740112     1.55560
O1245       O  0.71310242  0.09612563  0.66681762    -0.77520
C1246       C  0.79071844  0.18670186  0.53044136     0.98390
C1247       C  0.80762216  0.07670628  0.53091615     0.93270
O1248       O  0.78830357  0.06465736  0.56892391    -0.82840
C1249       C  0.83448942  0.12631885  0.71201917    -0.05960
C1250       C  0.85822284  0.15418068  0.70781596    -0.33390
C1251       C  0.89396279  0.15397415  0.73210542     0.35860
C1252       C  0.90665190  0.12548417  0.76118901    -0.06320
C1253       C  0.88230838  0.09801867  0.76619268    -0.33290
C1254       C  0.84672109  0.09832329  0.74222660     0.35760
H1255       H  0.84961516  0.17574230  0.68396242     0.16130
O1256       O  0.91658155  0.18132768  0.72559064    -0.60790
H1257       H  0.89069796  0.07605394  0.78919592     0.16150
O1258       O  0.82417434  0.07086712  0.74828322    -0.60890
H1259       H  0.80827469  0.07583060  0.77984555     0.43140
H1260       H  0.90923754  0.19690925  0.75455808     0.43100
C1261       C  0.58523307  0.12088555  0.75299474    -0.05960
C1262       C  0.60653531  0.09115412  0.74954985    -0.33390
C1263       C  0.64193491  0.09087169  0.72451381     0.35860
C1264       C  0.65688246  0.12078538  0.70294612    -0.06320
C1265       C  0.63528987  0.15029417  0.70650299    -0.33290
C1266       C  0.59984326  0.15042981  0.73007924     0.35760
H1267       H  0.59620099  0.06823402  0.76752572     0.16130
O1268       O  0.66187164  0.06140116  0.72255198    -0.60790
H1269       H  0.64571409  0.17370450  0.69045260     0.16150
O1270       O  0.57988072  0.17993986  0.73089777    -0.60890
H1271       H  0.56346022  0.17934781  0.69868019     0.43140
H1272       H  0.65333255  0.05033490  0.68922892     0.43100
C1273       C  0.91221817  0.06171872  0.96583489    -0.05960
C1274       C  0.88099842  0.05552477  0.93333254    -0.33390
C1275       C  0.84526481  0.05487338  0.95614598     0.35860
C1276       C  0.84124287  0.05967247  0.51174485    -0.06320
C1277       C  0.87294259  0.05938031  0.54495917    -0.33290
C1278       C  0.90861304  0.06079317  0.02208470     0.35760
H1279       H  0.88362720  0.05581878  0.89002913     0.16130
O1280       O  0.81419216  0.05350302  0.92345385    -0.60790
H1281       H  0.87001878  0.06286192  0.58783375     0.16150
O1282       O  0.93949272  0.06477777  0.05451967    -0.60890
H1283       H  0.93877842  0.08851667  0.56591050     0.43140
H1284       H  0.81130359  0.07630462  0.90779549     0.43100
C1285       C  0.58996680  0.18956002  0.95023433    -0.06200
C1286       C  0.59384722  0.19528386  0.00543857    -0.33390
C1287       C  0.62927390  0.19397543  0.52960858     0.35860
C1288       C  0.66085669  0.18720169  0.49792621    -0.06320
C1289       C  0.65733140  0.18727470  0.94174030    -0.33290
C1290       C  0.62192417  0.18850894  0.91763201     0.35760
H1291       H  0.56917510  0.19618200  0.03072205     0.16130
O1292       O  0.63198267  0.19416777  0.58448025    -0.60790
H1293       H  0.68165637  0.18232308  0.91696508     0.16150
O1294       O  0.61876363  0.18262275  0.86366833    -0.60890
H1295       H  0.61449645  0.20496918  0.84701704     0.43140
H1296       H  0.62626339  0.17091603  0.59589607     0.43100
C1297       C  0.55566889  0.46902110  0.50956058    -0.05960
C1298       C  0.55884837  0.49734208  0.54222523    -0.33390
C1299       C  0.56005606  0.02942078  0.01932807     0.35860
C1300       C  0.55788618  0.03335633  0.96304550    -0.06320
C1301       C  0.06213526  0.50490769  0.93085320    -0.33290
C1302       C  0.06072693  0.47280966  0.95370301     0.35760
H1303       H  0.55618338  0.49503072  0.58538365     0.16130
O1304       O  0.55889232  0.05666581  0.55242510    -0.60790
H1305       H  0.06204815  0.50725494  0.88751140     0.16150
O1306       O  0.06123097  0.44543731  0.92073682    -0.60890
H1307       H  0.03625799  0.44522421  0.90293965     0.43140
H1308       H  0.58513551  0.06470869  0.55418716     0.43100
C1309       C  0.94225591  0.22009692  0.95354297    -0.05960
C1310       C  0.93579968  0.22285730  0.00888396    -0.33390
C1311       C  0.93538049  0.25425046  0.53355727     0.35860
C1312       C  0.94153545  0.28341847  0.50253447    -0.06320
C1313       C  0.44142634  0.28078009  0.94630159    -0.33290
C1314       C  0.44187054  0.24946672  0.92169340     0.35760
H1315       H  0.93477209  0.20055481  0.03389365     0.16130
O1316       O  0.93244617  0.25574987  0.58835637    -0.60790
H1317       H  0.44509056  0.30285238  0.92133401     0.16150
O1318       O  0.44737456  0.24811195  0.86732932    -0.60890
H1319       H  0.42184359  0.24662316  0.85155930     0.43140
H1320       H  0.95765353  0.24946418  0.60242881     0.43100
C1321       C  0.90993676  0.36567111  0.70437310    -0.05960
C1322       C  0.90875485  0.36368117  0.76045648    -0.33390
C1323       C  0.87411829  0.36348352  0.78713906     0.35860
C1324       C  0.84025988  0.36598798  0.75772678    -0.06320
C1325       C  0.84143148  0.36616998  0.70159321    -0.33290
C1326       C  0.87603421  0.36563783  0.67490397     0.35760
H1327       H  0.93460630  0.36316584  0.78353233     0.16130
O1328       O  0.87357725  0.36160349  0.84210981    -0.60790
H1329       H  0.81559750  0.36749005  0.67852882     0.16150
O1330       O  0.87654385  0.36576802  0.61987161    -0.60890
H1331       H  0.87926839  0.34192981  0.60965070     0.43140
H1332       H  0.87030386  0.33751117  0.85069717     0.43100
C1333       C  0.66252180  0.37707578  0.75157419    -0.05960
C1334       C  0.63984416  0.40609244  0.75094249    -0.33390
C1335       C  0.60391041  0.40603259  0.72692599     0.35860
C1336       C  0.58998948  0.37653983  0.70319470    -0.06320
C1337       C  0.61331759  0.34790406  0.70310809    -0.33290
C1338       C  0.64898911  0.34804129  0.72656608     0.35760
H1339       H  0.64948169  0.42856437  0.77060800     0.16130
O1340       O  0.58256389  0.43473655  0.72781296    -0.60790
H1341       H  0.60406325  0.32499314  0.68440530     0.16150
O1342       O  0.67034173  0.31932082  0.72518287    -0.60890
H1343       H  0.68633117  0.32173892  0.69292626     0.43140
H1344       H  0.58966516  0.44735357  0.69499736     0.43100
C1345       C  0.83868481  0.44037157  0.95643027    -0.05960
C1346       C  0.84061325  0.44360302  0.01242984    -0.33390
C1347       C  0.87553522  0.44475800  0.53835585     0.35860
C1348       C  0.90816483  0.44207531  0.50745383    -0.06320
C1349       C  0.90589226  0.44579290  0.95145169    -0.33290
C1350       C  0.87101697  0.44513690  0.92559889     0.35760
H1351       H  0.81535611  0.44131267  0.03624942     0.16130
O1352       O  0.87782143  0.44490953  0.59345632    -0.60790
H1353       H  0.93120084  0.44480234  0.92749308     0.16150
O1354       O  0.86909270  0.44506577  0.87056639    -0.60890
H1355       H  0.88216166  0.42435172  0.85915609     0.43140
H1356       H  0.86036980  0.42753999  0.60674731     0.43100
C1357       C  0.65973067  0.31327842  0.95648500    -0.05960
C1358       C  0.62838750  0.31218573  0.92258900    -0.33390
C1359       C  0.59242281  0.31278401  0.94447697     0.35860
C1360       C  0.58806487  0.31403740  0.50056619    -0.06320
C1361       C  0.61922650  0.30928840  0.53416563    -0.33290
C1362       C  0.65525678  0.30937712  0.01227796     0.35760
H1363       H  0.63165238  0.31528510  0.87960800     0.16130
O1364       O  0.56200337  0.31667175  0.91096594    -0.60790
H1365       H  0.61603665  0.30998764  0.57737513     0.16150
O1366       O  0.68596806  0.30905161  0.04576744    -0.60890
H1367       H  0.68770562  0.33210672  0.56003324     0.43140
H1368       H  0.54937423  0.29462692  0.91122653     0.43100
C1369       C  0.69353264  0.46898735  0.95035651    -0.05960
C1370       C  0.68820519  0.47131428  0.00606194    -0.33390
C1371       C  0.68820341  0.50244433  0.53135251     0.35860
C1372       C  0.69399297  0.03179273  0.50069152    -0.06320
C1373       C  0.69260529  0.02969984  0.94444320    -0.33290
C1374       C  0.69217973  0.99859208  0.91912646     0.35760
H1375       H  0.68797408  0.44886163  0.53078382     0.16130
O1376       O  0.68762728  0.50328678  0.58632784    -0.60790
H1377       H  0.69576142  0.05202950  0.91991797     0.16150
O1378       O  0.69578721  0.99765143  0.86441419    -0.60890
H1379       H  0.66980227  0.99549486  0.85050137     0.43140
H1380       H  0.66101203  0.50761813  0.59569695     0.43100
C1381       C  0.80739129  0.21783055  0.50849066    -0.05960
C1382       C  0.81226008  0.22085973  0.95275682    -0.33390
C1383       C  0.81268942  0.25237410  0.92787583     0.35860
C1384       C  0.80764721  0.28145001  0.95895314    -0.06320
C1385       C  0.80960321  0.27846334  0.01512078    -0.33290
C1386       C  0.80971470  0.24694664  0.54003580     0.35760
H1387       H  0.81190863  0.19879778  0.92774619     0.16130
O1388       O  0.81306187  0.25400574  0.87291149    -0.60790
H1389       H  0.80714375  0.30049693  0.53998389     0.16150
O1390       O  0.80700402  0.24529021  0.59484882    -0.60890
H1391       H  0.83313252  0.24192532  0.60781373     0.43140
H1392       H  0.83967297  0.25794396  0.86337895     0.43100
O1393       O  0.70557279  0.84856419  0.30777552    -0.82300
C1394       C  0.80681648  0.92239345  0.43384479     0.97060
O1395       O  0.78937357  0.93350194  0.39297883    -0.71410
O1396       O  0.79681939  0.89808470  0.30670979    -0.75010
Al1397     Al  0.75399439  0.91296122  0.34454963     1.48980
C1398       C  0.80434112  0.87019816  0.28621374     0.92310
O1399       O  0.78920911  0.81593692  0.38490773    -0.81230
O1400       O  0.70354719  0.85600520  0.45714392    -0.74780
Al1401     Al  0.74757198  0.83516877  0.34818415     1.90120
O1402       O  0.77468355  0.83303323  0.46488626    -0.73850
O1403       O  0.72662225  0.91789939  0.46037861    -0.73700
O1404       O  0.79778468  0.89525042  0.45630915    -0.79360
O1405       O  0.71223834  0.93336970  0.37874669    -0.77570
O1406       O  0.75071655  0.87455670  0.38182388    -1.13700
O1407       O  0.71844039  0.90083514  0.28923653    -0.72900
C1408       C  0.69765302  0.87552749  0.28395013     0.97820
C1409       C  0.79112290  0.81236383  0.43495146     0.94220
Al1410     Al  0.75068740  0.87544601  0.45336357     1.55560
O1411       O  0.78272454  0.84562038  0.29235850    -0.77520
C1412       C  0.71019759  0.93786936  0.42853488     0.98390
C1413       C  0.69373939  0.82888494  0.43610047     0.93270
O1414       O  0.71170720  0.81620508  0.39747828    -0.82840
O1415       O  0.54107262  0.64974455  0.30581028    -0.82300
C1416       C  0.94436681  0.57876278  0.44225745     0.97060
O1417       O  0.96204594  0.56618978  0.40314846    -0.71410
O1418       O  0.95373964  0.59740423  0.31226942    -0.75010
Al1419     Al  0.99686049  0.58539143  0.35219937     1.48980
C1420       C  0.94347663  0.62436279  0.29005375     0.92310
O1421       O  0.95900175  0.68323218  0.38301220    -0.81230
O1422       O  0.54684107  0.64659181  0.45669134    -0.74780
Al1423     Al  0.50002058  0.66340128  0.34683062     1.90120
O1424       O  0.97592711  0.66921052  0.46404707    -0.73850
O1425       O  0.52431660  0.58459799  0.46832720    -0.73700
O1426       O  0.95315448  0.60671630  0.46161321    -0.79360
O1427       O  0.03949251  0.56747378  0.38868585    -0.77570
O1428       O  0.99895315  0.62515441  0.38477604    -1.13700
O1429       O  0.53161468  0.59623569  0.29559290    -0.72900
C1430       C  0.55045702  0.62223509  0.28581118     0.97820
C1431       C  0.95847918  0.68861652  0.43250059     0.94220
Al1432     Al  0.49996300  0.62666506  0.45630552     1.55560
O1433       O  0.96329535  0.65028998  0.29446388    -0.77520
C1434       C  0.54134028  0.56414299  0.43881805     0.98390
C1435       C  0.55590201  0.67300789  0.43212587     0.93270
O1436       O  0.53700453  0.68425647  0.39259342    -0.82840
O1437       O  0.95267104  0.89811404  0.15514946    -0.82300
C1438       C  0.55452786  0.82986841  0.02260945     0.97060
O1439       O  0.53727728  0.81682354  0.06173151    -0.71410
O1440       O  0.54495150  0.84843378  0.15069590    -0.75010
Al1441     Al  0.50220163  0.83548840  0.11243557     1.48980
C1442       C  0.55315236  0.87507437  0.17429125     0.92310
O1443       O  0.03624804  0.93378360  0.08174172    -0.81230
O1444       O  0.94976275  0.89708568  0.00660000    -0.74780
Al1445     Al  0.99492656  0.91325089  0.11679101     1.90120
O1446       O  0.52071441  0.91937450  0.00049054    -0.73850
O1447       O  0.97333983  0.83509717  0.99685420    -0.73700
O1448       O  0.54428548  0.85743798  0.00231735    -0.79360
O1449       O  0.46007157  0.81677124  0.07699723    -0.77570
O1450       O  0.99806872  0.87529147  0.07917945    -1.13700
O1451       O  0.96794564  0.84557422  0.16977835    -0.72900
C1452       C  0.94582616  0.87006628  0.17594062     0.97820
C1453       C  0.53804100  0.93846787  0.03180533     0.94220
Al1454     Al  0.99704276  0.87710873  0.00781251     1.55560
O1455       O  0.53111259  0.90004369  0.17145048    -0.77520
C1456       C  0.95761483  0.81396489  0.02689590     0.98390
C1457       C  0.94073426  0.92404376  0.02921383     0.93270
O1458       O  0.95879432  0.93481107  0.06930778    -0.82840
O1459       O  0.79103340  0.59736343  0.15836722    -0.82300
C1460       C  0.69388645  0.67070168  0.02167516     0.97060
O1461       O  0.71001939  0.68237289  0.06291227    -0.71410
O1462       O  0.70280138  0.64931870  0.15216445    -0.75010
Al1463     Al  0.74541229  0.66272948  0.11372217     1.48980
C1464       C  0.69310778  0.62200505  0.17305665     0.92310
O1465       O  0.71030923  0.56583530  0.07525177    -0.81230
O1466       O  0.79916331  0.60417511  0.00857794    -0.74780
Al1467     Al  0.75058330  0.58458406  0.11465144     1.90120
O1468       O  0.72871640  0.58188986  0.99610508    -0.73850
O1469       O  0.77560392  0.66638698  0.99885963    -0.73700
O1470       O  0.70490399  0.64395535  0.00016759    -0.79360
O1471       O  0.78742182  0.68250980  0.08009242    -0.77570
O1472       O  0.74927516  0.62383075  0.07893817    -1.13700
O1473       O  0.78037209  0.65088221  0.16988805    -0.72900
C1474       C  0.79970305  0.62479680  0.17918068     0.97820
C1475       C  0.71049623  0.56200158  0.02529199     0.94220
Al1476     Al  0.75191185  0.62405825  0.00740110     1.55560
O1477       O  0.71310238  0.59612575  0.16681757    -0.77520
C1478       C  0.79071843  0.68670201  0.03044139     0.98390
C1479       C  0.80762213  0.57670641  0.03091610     0.93270
O1480       O  0.78830354  0.56465750  0.06892386    -0.82840
C1481       C  0.83448939  0.62631895  0.21201916    -0.05960
C1482       C  0.85822278  0.65418081  0.20781603    -0.33390
C1483       C  0.89396272  0.65397429  0.23210551     0.35860
C1484       C  0.90665186  0.62548430  0.26118905    -0.06320
C1485       C  0.88230837  0.59801877  0.26619264    -0.33290
C1486       C  0.84672108  0.59832337  0.24222653     0.35760
H1487       H  0.84961508  0.67574245  0.18396254     0.16130
O1488       O  0.91658145  0.68132785  0.22559081    -0.60790
H1489       H  0.89069797  0.57605403  0.28919584     0.16150
O1490       O  0.82417437  0.57086717  0.24828307    -0.60890
H1491       H  0.80827470  0.57583062  0.27984540     0.43140
H1492       H  0.90923741  0.69690939  0.25455828     0.43100
C1493       C  0.58523305  0.62088569  0.25299472    -0.05960
C1494       C  0.60653524  0.59115425  0.24954973    -0.33390
C1495       C  0.64193484  0.59087181  0.22451369     0.35860
C1496       C  0.65688244  0.62078551  0.20294611    -0.06320
C1497       C  0.63528989  0.65029432  0.20650309    -0.33290
C1498       C  0.59984328  0.65042997  0.23007934     0.35760
H1499       H  0.59620088  0.56823413  0.26752551     0.16130
O1500       O  0.66187151  0.56140126  0.22255174    -0.60790
H1501       H  0.64571414  0.67370466  0.19045278     0.16150
O1502       O  0.57988079  0.67994005  0.23089798    -0.60890
H1503       H  0.56346030  0.67934807  0.19868038     0.43140
H1504       H  0.65333242  0.55033506  0.18922862     0.43100
C1505       C  0.91221825  0.56171878  0.46583501    -0.05960
C1506       C  0.88099852  0.55552470  0.43333270    -0.33390
C1507       C  0.84526492  0.55487321  0.45614617     0.35860
C1508       C  0.84124282  0.55967259  0.01174478    -0.06320
C1509       C  0.87294253  0.55938033  0.04495912    -0.33290
C1510       C  0.90861315  0.56079326  0.52208483     0.35760
H1511       H  0.88362728  0.55581868  0.39002929     0.16130
O1512       O  0.81419227  0.55350273  0.42345407    -0.60790
H1513       H  0.87001873  0.56286193  0.08783370     0.16150
O1514       O  0.93949282  0.56477797  0.55451977    -0.60890
H1515       H  0.93877846  0.58851650  0.06591047     0.43140
H1516       H  0.81130359  0.57630432  0.40779568     0.43100
C1517       C  0.58996689  0.68956002  0.45023417    -0.06200
C1518       C  0.59384734  0.69528398  0.50543837    -0.33390
C1519       C  0.62927381  0.69397538  0.02960872     0.35860
C1520       C  0.66085662  0.68720181  0.99792631    -0.06320
C1521       C  0.65733149  0.68727440  0.44174016    -0.33290
C1522       C  0.62192426  0.68850873  0.41763187     0.35760
H1523       H  0.56917523  0.69618228  0.53072185     0.16130
O1524       O  0.63198258  0.69416761  0.08448038    -0.60790
H1525       H  0.68165643  0.68232263  0.41696495     0.16150
O1526       O  0.61876369  0.68262241  0.36366822    -0.60890
H1527       H  0.61449660  0.70496881  0.34701678     0.43140
H1528       H  0.62626343  0.67091582  0.09589609     0.43100
C1529       C  0.55566893  0.96902106  0.00956068    -0.05960
C1530       C  0.55884839  0.99734204  0.04222532    -0.33390
C1531       C  0.56005603  0.52942082  0.51932799     0.35860
C1532       C  0.55788614  0.53335638  0.46304542    -0.06320
C1533       C  0.06213519  0.00490779  0.43085312    -0.33290
C1534       C  0.06072687  0.97280974  0.45370290     0.35760
H1535       H  0.55618339  0.99503069  0.08538374     0.16130
O1536       O  0.55889226  0.55666580  0.05242518    -0.60790
H1537       H  0.06204807  0.00725504  0.38751131     0.16150
O1538       O  0.06123089  0.94543741  0.42073670    -0.60890
H1539       H  0.03625790  0.94522430  0.40293957     0.43140
H1540       H  0.58513544  0.56470870  0.05418724     0.43100
C1541       C  0.94225584  0.72009696  0.45354323    -0.05960
C1542       C  0.93579982  0.72285732  0.50888426    -0.33390
C1543       C  0.93538032  0.75425046  0.03355692     0.35860
C1544       C  0.94153554  0.78341844  0.00253417    -0.06320
C1545       C  0.44142601  0.78078011  0.44630185    -0.33290
C1546       C  0.44187019  0.74946674  0.42169364     0.35760
H1547       H  0.93477241  0.70055482  0.53389397     0.16130
O1548       O  0.93244569  0.75574990  0.08835598    -0.60790
H1549       H  0.44509004  0.80285243  0.42133426     0.16150
O1550       O  0.44737392  0.74811199  0.36732950    -0.60890
H1551       H  0.42184287  0.74662309  0.35155977     0.43140
H1552       H  0.95765294  0.74946412  0.10242873     0.43100
C1553       C  0.90993671  0.86567100  0.20437308    -0.05960
C1554       C  0.90875481  0.86368108  0.26045646    -0.33390
C1555       C  0.87411825  0.86348343  0.28713904     0.35860
C1556       C  0.84025983  0.86598786  0.25772678    -0.06320
C1557       C  0.84143143  0.86616984  0.20159320    -0.33290
C1558       C  0.87603415  0.86563769  0.17490396     0.35760
H1559       H  0.93460626  0.86316577  0.28353230     0.16130
O1560       O  0.87357722  0.86160342  0.34210980    -0.60790
H1561       H  0.81559744  0.86748988  0.17852882     0.16150
O1562       O  0.87654379  0.86576787  0.11987160    -0.60890
H1563       H  0.87926833  0.84192966  0.10965070     0.43140
H1564       H  0.87030384  0.83751109  0.35069718     0.43100
C1565       C  0.66252176  0.87707565  0.25157423    -0.05960
C1566       C  0.63984411  0.90609231  0.25094257    -0.33390
C1567       C  0.60391036  0.90603246  0.22692607     0.35860
C1568       C  0.58998944  0.87653971  0.20319473    -0.06320
C1569       C  0.61331755  0.84790394  0.20310809    -0.33290
C1570       C  0.64898907  0.84804117  0.22656608     0.35760
H1571       H  0.64948164  0.92856423  0.27060810     0.16130
O1572       O  0.58256384  0.93473642  0.22781307    -0.60790
H1573       H  0.60406321  0.82499304  0.18440527     0.16150
O1574       O  0.67034170  0.81932071  0.22518284    -0.60890
H1575       H  0.68633113  0.82173882  0.19292623     0.43140
H1576       H  0.58966512  0.94735346  0.19499750     0.43100
C1577       C  0.83868479  0.94037144  0.45643027    -0.05960
C1578       C  0.84061323  0.94360292  0.51242983    -0.33390
C1579       C  0.87553525  0.94475804  0.03835586     0.35860
C1580       C  0.90816486  0.94207529  0.00745385    -0.06320
C1581       C  0.90589222  0.94579286  0.45145166    -0.33290
C1582       C  0.87101694  0.94513680  0.42559887     0.35760
H1583       H  0.81535610  0.94131255  0.53624941     0.16130
O1584       O  0.87782144  0.94490954  0.09345633    -0.60790
H1585       H  0.93120080  0.94480233  0.42749304     0.16150
O1586       O  0.86909266  0.94506563  0.37056637    -0.60890
H1587       H  0.88216172  0.92435164  0.35915608     0.43140
H1588       H  0.86036993  0.92753988  0.10674726     0.43100
C1589       C  0.65973063  0.81327830  0.45648500    -0.05960
C1590       C  0.62838745  0.81218566  0.42258899    -0.33390
C1591       C  0.59242277  0.81278399  0.44447695     0.35860
C1592       C  0.58806490  0.81403743  0.00056616    -0.06320
C1593       C  0.61922654  0.80928848  0.03416561    -0.33290
C1594       C  0.65525672  0.80937699  0.51227796     0.35760
H1595       H  0.63165235  0.81528503  0.37960800     0.16130
O1596       O  0.56200333  0.81667177  0.41096591    -0.60790
H1597       H  0.61603668  0.80998771  0.07737510     0.16150
O1598       O  0.68596800  0.80905143  0.54576744    -0.60890
H1599       H  0.68770561  0.83210690  0.06003320     0.43140
H1600       H  0.54937417  0.79462695  0.41122647     0.43100
C1601       C  0.69353263  0.96898719  0.45035661    -0.05960
C1602       C  0.68820523  0.97131412  0.50606204    -0.33390
C1603       C  0.68820331  0.00244451  0.03135237     0.35860
C1604       C  0.69399295  0.53179290  0.00069142    -0.06320
C1605       C  0.69260530  0.52969967  0.44444334    -0.33290
C1606       C  0.69217972  0.49859191  0.41912659     0.35760
H1607       H  0.68797399  0.94886181  0.03078369     0.16130
O1608       O  0.68762712  0.00328697  0.08632770    -0.60790
H1609       H  0.69576141  0.55202933  0.41991811     0.16150
O1610       O  0.69578714  0.49765126  0.36441431    -0.60890
H1611       H  0.66980219  0.49549469  0.35050154     0.43140
H1612       H  0.66101185  0.00761832  0.09569675     0.43100
C1613       C  0.80739128  0.71783071  0.00849071    -0.05960
C1614       C  0.81226008  0.72085957  0.45275680    -0.33390
C1615       C  0.81268940  0.75237394  0.42787581     0.35860
C1616       C  0.80764721  0.78144986  0.45895311    -0.06320
C1617       C  0.80960324  0.77846319  0.51512075    -0.33290
C1618       C  0.80971465  0.74694680  0.04003586     0.35760
H1619       H  0.81190862  0.69879762  0.42774617     0.16130
O1620       O  0.81306183  0.75400558  0.37291146    -0.60790
H1621       H  0.80714368  0.80049709  0.03998395     0.16150
O1622       O  0.80700394  0.74529037  0.09484887    -0.60890
H1623       H  0.83313244  0.74192549  0.10781381     0.43140
H1624       H  0.83967292  0.75794380  0.36337889     0.43100
O1625       O  0.70557283  0.84856434  0.80777550    -0.82300
C1626       C  0.80681647  0.92239361  0.93384481     0.97060
O1627       O  0.78937358  0.93350210  0.89297884    -0.71410
O1628       O  0.79681943  0.89808485  0.80670980    -0.75010
Al1629     Al  0.75399442  0.91296138  0.84454961     1.48980
C1630       C  0.80434116  0.87019831  0.78621376     0.92310
O1631       O  0.78920913  0.81593710  0.88490777    -0.81230
O1632       O  0.70354715  0.85600538  0.95714387    -0.74780
Al1633     Al  0.74757200  0.83516893  0.84818415     1.90120
O1634       O  0.77468351  0.83303341  0.96488629    -0.73850
O1635       O  0.72662222  0.91789957  0.96037857    -0.73700
O1636       O  0.79778464  0.89525059  0.95630919    -0.79360
O1637       O  0.71223835  0.93336988  0.87874663    -0.77570
O1638       O  0.75071655  0.87455687  0.88182388    -1.13700
O1639       O  0.71844043  0.90083529  0.78923649    -0.72900
C1640       C  0.69765306  0.87552764  0.78395010     0.97820
C1641       C  0.79112289  0.81236401  0.93495151     0.94220
Al1642     Al  0.75068736  0.87544618  0.95336357     1.55560
O1643       O  0.78272458  0.84562053  0.79235853    -0.77520
C1644       C  0.71019757  0.93786954  0.92853482     0.98390
C1645       C  0.69373938  0.82888510  0.93610044     0.93270
O1646       O  0.71170721  0.81620523  0.89747827    -0.82840
O1647       O  0.54107265  0.64974446  0.80581028    -0.82300
C1648       C  0.94436682  0.57876266  0.94225744     0.97060
O1649       O  0.96204598  0.56618964  0.90314850    -0.71410
O1650       O  0.95373967  0.59740407  0.81226946    -0.75010
Al1651     Al  0.99686053  0.58539128  0.85219940     1.48980
C1652       C  0.94347669  0.62436263  0.79005372     0.92310
O1653       O  0.95900178  0.68323201  0.88301207    -0.81230
O1654       O  0.54684103  0.64659176  0.95669136    -0.74780
Al1655     Al  0.50002059  0.66340120  0.84683058     1.90120
O1656       O  0.97592712  0.66921041  0.96404699    -0.73850
O1657       O  0.52431655  0.58459795  0.96832724    -0.73700
O1658       O  0.95315448  0.60671619  0.96161317    -0.79360
O1659       O  0.03949255  0.56747365  0.88868590    -0.77570
O1660       O  0.99895319  0.62515426  0.88477603    -1.13700
O1661       O  0.53161469  0.59623559  0.79559293    -0.72900
C1662       C  0.55045705  0.62223498  0.78581120     0.97820
C1663       C  0.95847922  0.68861641  0.93250045     0.94220
Al1664     Al  0.49996296  0.62666501  0.95630550     1.55560
O1665       O  0.96329546  0.65028980  0.79446378    -0.77520
C1666       C  0.54134025  0.56414295  0.93881811     0.98390
C1667       C  0.55590197  0.67300783  0.93212588     0.93270
O1668       O  0.53700451  0.68425640  0.89259340    -0.82840
O1669       O  0.95267107  0.89811415  0.65514942    -0.82300
C1670       C  0.55452786  0.82986844  0.52260946     0.97060
O1671       O  0.53727729  0.81682359  0.56173154    -0.71410
O1672       O  0.54495155  0.84843387  0.65069588    -0.75010
Al1673     Al  0.50220166  0.83548848  0.61243561     1.48980
C1674       C  0.55315241  0.87507447  0.67429121     0.92310
O1675       O  0.03624807  0.93378366  0.58174163    -0.81230
O1676       O  0.94976275  0.89708570  0.50660002    -0.74780
Al1677     Al  0.99492659  0.91325098  0.61679096     1.90120
O1678       O  0.52071441  0.91937453  0.50049047    -0.73850
O1679       O  0.97333979  0.83509718  0.49685431    -0.73700
O1680       O  0.54428549  0.85743801  0.50231734    -0.79360
O1681       O  0.46007159  0.81677131  0.57699734    -0.77570
O1682       O  0.99806874  0.87529154  0.57917946    -1.13700
O1683       O  0.96794573  0.84557436  0.66977847    -0.72900
C1684       C  0.94582621  0.87006641  0.67594067     0.97820
C1685       C  0.53804099  0.93846792  0.53180525     0.94220
Al1686     Al  0.99704275  0.87710875  0.50781252     1.55560
O1687       O  0.53111262  0.90004379  0.67145044    -0.77520
C1688       C  0.95761479  0.81396494  0.52689609     0.98390
C1689       C  0.94073427  0.92404380  0.52921380     0.93270
O1690       O  0.95879435  0.93481114  0.56930771    -0.82840
O1691       O  0.79103344  0.59736331  0.65836727    -0.82300
C1692       C  0.69388647  0.67070154  0.52167519     0.97060
O1693       O  0.71001942  0.68237276  0.56291228    -0.71410
O1694       O  0.70280141  0.64931858  0.65216449    -0.75010
Al1695     Al  0.74541232  0.66272936  0.61372220     1.48980
C1696       C  0.69310781  0.62200493  0.67305671     0.92310
O1697       O  0.71030926  0.56583515  0.57525187    -0.81230
O1698       O  0.79916331  0.60417496  0.50857798    -0.74780
Al1699     Al  0.75058333  0.58458393  0.61465152     1.90120
O1700       O  0.72871640  0.58188970  0.49610517    -0.73850
O1701       O  0.77560392  0.66638682  0.49885965    -0.73700
O1702       O  0.70490399  0.64395519  0.50016765    -0.79360
O1703       O  0.78742185  0.68250966  0.58009242    -0.77570
O1704       O  0.74927518  0.62383061  0.57893822    -1.13700
O1705       O  0.78037213  0.65088210  0.66988808    -0.72900
C1706       C  0.79970309  0.62479669  0.67918072     0.97820
C1707       C  0.71049625  0.56200143  0.52529210     0.94220
Al1708     Al  0.75191185  0.62405809  0.50740115     1.55560
O1709       O  0.71310241  0.59612564  0.66681765    -0.77520
C1710       C  0.79071845  0.68670186  0.53044138     0.98390
C1711       C  0.80762216  0.57670628  0.53091617     0.93270
O1712       O  0.78830357  0.56465737  0.56892394    -0.82840
C1713       C  0.83448943  0.62631884  0.71201919    -0.05960
C1714       C  0.85822286  0.65418067  0.70781598    -0.33390
C1715       C  0.89396281  0.65397413  0.73210545     0.35860
C1716       C  0.90665192  0.62548415  0.76118903    -0.06320
C1717       C  0.88230839  0.59801866  0.76619270    -0.33290
C1718       C  0.84672110  0.59832327  0.74222662     0.35760
H1719       H  0.84961518  0.67574229  0.68396245     0.16130
O1720       O  0.91658157  0.68132766  0.72559067    -0.60790
H1721       H  0.89069797  0.57605392  0.78919594     0.16150
O1722       O  0.82417435  0.57086711  0.74828324    -0.60890
H1723       H  0.80827470  0.57583059  0.77984557     0.43140
H1724       H  0.90923757  0.69690923  0.75455812     0.43100
C1725       C  0.58523307  0.62088558  0.75299475    -0.05960
C1726       C  0.60653529  0.59115415  0.74954986    -0.33390
C1727       C  0.64193490  0.59087171  0.72451383     0.35860
C1728       C  0.65688247  0.62078540  0.70294616    -0.06320
C1729       C  0.63528989  0.65029419  0.70650304    -0.33290
C1730       C  0.59984327  0.65042984  0.73007928     0.35760
H1731       H  0.59620096  0.56823404  0.76752571     0.16130
O1732       O  0.66187161  0.56140118  0.72255199    -0.60790
H1733       H  0.64571411  0.67370453  0.69045267     0.16150
O1734       O  0.57988075  0.67993990  0.73089781    -0.60890
H1735       H  0.56346025  0.67934786  0.69868022     0.43140
H1736       H  0.65333253  0.55033492  0.68922892     0.43100
C1737       C  0.91221823  0.56171869  0.96583496    -0.05960
C1738       C  0.88099848  0.55552471  0.93333263    -0.33390
C1739       C  0.84526487  0.55487333  0.95614608     0.35860
C1740       C  0.84124286  0.55967248  0.51174487    -0.06320
C1741       C  0.87294259  0.55938032  0.54495919    -0.33290
C1742       C  0.90861311  0.56079316  0.02208478     0.35760
H1743       H  0.88362725  0.55581870  0.89002922     0.16130
O1744       O  0.81419222  0.55350295  0.92345396    -0.60790
H1745       H  0.87001878  0.56286193  0.58783377     0.16150
O1746       O  0.93949279  0.56477779  0.05451973    -0.60890
H1747       H  0.93877840  0.58851668  0.56591051     0.43140
H1748       H  0.81130363  0.57630454  0.90779558     0.43100
C1749       C  0.58996682  0.68956000  0.95023425    -0.06200
C1750       C  0.59384726  0.69528389  0.00543847    -0.33390
C1751       C  0.62927388  0.69397540  0.52960864     0.35860
C1752       C  0.66085668  0.68720170  0.49792627    -0.06320
C1753       C  0.65733142  0.68727458  0.94174020    -0.33290
C1754       C  0.62192419  0.68850884  0.91763192     0.35760
H1755       H  0.56917516  0.69618209  0.03072196     0.16130
O1756       O  0.63198265  0.69416771  0.58448031    -0.60790
H1757       H  0.68165638  0.68232290  0.91696497     0.16150
O1758       O  0.61876363  0.68262259  0.86366826    -0.60890
H1759       H  0.61449648  0.70496900  0.84701690     0.43140
H1760       H  0.62626339  0.67091596  0.59589610     0.43100
C1761       C  0.55566888  0.96902113  0.50956058    -0.05960
C1762       C  0.55884836  0.99734210  0.54222523    -0.33390
C1763       C  0.56005601  0.52942082  0.01932810     0.35860
C1764       C  0.55788615  0.53335636  0.96304553    -0.06320
C1765       C  0.06213524  0.00490771  0.93085323    -0.33290
C1766       C  0.06072693  0.97280968  0.95370303     0.35760
H1767       H  0.55618337  0.99503074  0.58538365     0.16130
O1768       O  0.55889232  0.55666579  0.55242509    -0.60790
H1769       H  0.06204814  0.00725496  0.88751142     0.16150
O1770       O  0.06123099  0.94543733  0.92073685    -0.60890
H1771       H  0.03625801  0.94522422  0.90293967     0.43140
H1772       H  0.58513551  0.56470867  0.55418714     0.43100
C1773       C  0.94225595  0.72009690  0.95354296    -0.05960
C1774       C  0.93579969  0.72285729  0.00888393    -0.33390
C1775       C  0.93538048  0.75425047  0.53355728     0.35860
C1776       C  0.94153545  0.78341848  0.50253448    -0.06320
C1777       C  0.44142618  0.78078009  0.94630166    -0.33290
C1778       C  0.44187038  0.74946673  0.92169346     0.35760
H1779       H  0.93477207  0.70055480  0.03389363     0.16130
O1780       O  0.93244615  0.75574989  0.58835637    -0.60790
H1781       H  0.44509034  0.80285240  0.92133409     0.16150
O1782       O  0.44737430  0.74811197  0.86732935    -0.60890
H1783       H  0.42184330  0.74662314  0.85155944     0.43140
H1784       H  0.95765352  0.74946419  0.60242882     0.43100
C1785       C  0.90993676  0.86567113  0.70437312    -0.05960
C1786       C  0.90875485  0.86368115  0.76045649    -0.33390
C1787       C  0.87411828  0.86348350  0.78713907     0.35860
C1788       C  0.84025987  0.86598800  0.75772680    -0.06320
C1789       C  0.84143147  0.86617004  0.70159322    -0.33290
C1790       C  0.87603420  0.86563789  0.67490399     0.35760
H1791       H  0.93460629  0.86316579  0.78353234     0.16130
O1792       O  0.87357725  0.86160344  0.84210982    -0.60790
H1793       H  0.81559749  0.86749013  0.67852885     0.16150
O1794       O  0.87654384  0.86576811  0.61987162    -0.60890
H1795       H  0.87926837  0.84192990  0.60965068     0.43140
H1796       H  0.87030384  0.83751111  0.85069714     0.43100
C1797       C  0.66252180  0.87707579  0.75157419    -0.05960
C1798       C  0.63984415  0.90609245  0.75094249    -0.33390
C1799       C  0.60391040  0.90603259  0.72692599     0.35860
C1800       C  0.58998948  0.87653983  0.70319468    -0.06320
C1801       C  0.61331760  0.84790407  0.70310807    -0.33290
C1802       C  0.64898912  0.84804131  0.72656606     0.35760
H1803       H  0.64948168  0.92856438  0.77060801     0.16130
O1804       O  0.58256388  0.93473655  0.72781296    -0.60790
H1805       H  0.60406326  0.82499315  0.68440527     0.16150
O1806       O  0.67034174  0.81932084  0.72518285    -0.60890
H1807       H  0.68633118  0.82173894  0.69292624     0.43140
H1808       H  0.58966515  0.94735358  0.69499737     0.43100
C1809       C  0.83868480  0.94037157  0.95643030    -0.05960
C1810       C  0.84061324  0.94360302  0.01242987    -0.33390
C1811       C  0.87553523  0.94475802  0.53835583     0.35860
C1812       C  0.90816485  0.94207531  0.50745382    -0.06320
C1813       C  0.90589224  0.94579287  0.95145170    -0.33290
C1814       C  0.87101696  0.94513689  0.92559891     0.35760
H1815       H  0.81535611  0.94131268  0.03624946     0.16130
O1816       O  0.87782144  0.94490957  0.59345630    -0.60790
H1817       H  0.93120082  0.94480231  0.92749308     0.16150
O1818       O  0.86909268  0.94506575  0.87056641    -0.60890
H1819       H  0.88216158  0.92435168  0.85915612     0.43140
H1820       H  0.86036977  0.92754006  0.60674731     0.43100
C1821       C  0.65973065  0.81327843  0.95648499    -0.05960
C1822       C  0.62838747  0.81218572  0.92258898    -0.33390
C1823       C  0.59242279  0.81278398  0.94447695     0.35860
C1824       C  0.58806488  0.81403743  0.50056616    -0.06320
C1825       C  0.61922651  0.80928841  0.53416560    -0.33290
C1826       C  0.65525675  0.80937712  0.01227796     0.35760
H1827       H  0.63165236  0.81528509  0.87960799     0.16130
O1828       O  0.56200334  0.81667171  0.91096592    -0.60790
H1829       H  0.61603665  0.80998764  0.57737510     0.16150
O1830       O  0.68596803  0.80905163  0.04576743    -0.60890
H1831       H  0.68770563  0.83210670  0.56003322     0.43140
H1832       H  0.54937422  0.79462687  0.91122650     0.43100
C1833       C  0.69353260  0.96898737  0.95035652    -0.05960
C1834       C  0.68820515  0.97131430  0.00606194    -0.33390
C1835       C  0.68820342  0.00244433  0.53135247     0.35860
C1836       C  0.69399295  0.53179274  0.50069156    -0.06320
C1837       C  0.69260535  0.52969982  0.94444320    -0.33290
C1838       C  0.69217979  0.49859207  0.91912646     0.35760
H1839       H  0.68797409  0.94886163  0.53078379     0.16130
O1840       O  0.68762729  0.00328678  0.58632780    -0.60790
H1841       H  0.69576149  0.55202948  0.91991797     0.16150
O1842       O  0.69578726  0.49765141  0.86441419    -0.60890
H1843       H  0.66980231  0.49549485  0.85050137     0.43140
H1844       H  0.66101203  0.00761813  0.59569692     0.43100
C1845       C  0.80739130  0.71783054  0.50849068    -0.05960
C1846       C  0.81226008  0.72085975  0.95275684    -0.33390
C1847       C  0.81268941  0.75237412  0.92787586     0.35860
C1848       C  0.80764718  0.78145003  0.95895317    -0.06320
C1849       C  0.80960318  0.77846336  0.01512082    -0.33290
C1850       C  0.80971471  0.74694663  0.54003581     0.35760
H1851       H  0.81190865  0.69879780  0.92774620     0.16130
O1852       O  0.81306187  0.75400577  0.87291152    -0.60790
H1853       H  0.80714377  0.80049693  0.53998389     0.16150
O1854       O  0.80700403  0.74529021  0.59484883    -0.60890
H1855       H  0.83313253  0.74192532  0.60781374     0.43140
H1856       H  0.83967296  0.75794400  0.86337898     0.43100
loop_ 
_geom_bond_atom_site_label_1 
_geom_bond_atom_site_label_2 
_geom_bond_distance 
_geom_bond_site_symmetry_2 
_ccdc_geom_bond_type 
O1           C16   1.255       .  A
O1           Al9   1.872       .  S
C2           O12   1.260       .  A
C2            O3   1.266       .  A
C2          C185   1.461       .  S
O3           Al5   1.933       .  S
O4            C6   1.257       .  A
O4           Al5   1.891       .  S
Al5          O13   1.899       .  S
Al5          O15   1.935       .  S
Al5          O14   1.791       .  S
C6           O19   1.261       .  A
C6          C164   1.475       .  S
O7           C17   1.256       .  A
O7           Al9   1.894       .  S
O8           C21   1.259       .  A
O8          Al18   1.858       .  S
Al9          O22   1.931       .  S
Al9          O19   1.921       .  S
Al9          O14   1.793       .  S
O10          C17   1.260       .  A
O10         Al18   1.910       .  S
O11          C20   1.259       .  A
O11         Al18   1.904       .  S
O12         Al18   1.862       .  S
O13          C20   1.258       .  A
O14         Al18   1.784       .  S
O15          C16   1.265       .  A
C16         C173   1.487       .  S
C17         C224   1.484       .  S
C20         C209   1.482       .  S
C21          O22   1.266       .  A
C21         C197   1.458       .  S
O23          C38   1.254       .  A
O23         Al31   1.869       .  S
C24          O34   1.261       .  A
C24          O25   1.268       .  A
C24         C113   1.460       .  S
O25         Al27   1.937       .  S
O26          C28   1.258       .  A
O26         Al27   1.883       .  S
Al27         O35   1.899       .  S
Al27        O965   1.930       .  S
Al27         O36   1.792       .  S
C28          O41   1.263       .  A
C28          C92   1.493       .  S
O29          C39   1.254       .  A
O29        Al959   1.892       .  S
O30          C43   1.260       .  A
O30         Al40   1.855   1_455  S
Al31         O44   1.936       .  S
Al31        O957   1.892   1_455  S
Al31        O969   1.922   1_455  S
Al31        O964   1.791   1_455  S
O32          C39   1.258       .  A
O32        Al968   1.908       .  S
O33          C42   1.258       .  A
O33         Al40   1.906   1_455  S
O34        Al968   1.858       .  S
O35         C970   1.257       .  A
O36        Al959   1.791       .  S
O36        Al968   1.785       .  S
O37          C38   1.263       .  A
O37        Al955   1.930   1_455  S
C38         C101   1.488       .  S
C39         C149   1.481       .  S
Al40        O960   1.908       .  S
Al40        O962   1.858       .  S
Al40        O964   1.785       .  S
O41        Al959   1.922       .  S
C42         O963   1.257       .  A
C42         C140   1.482       .  S
C43          O44   1.268       .  A
C43         C125   1.458       .  S
O45          C60   1.256       .  A
O45         Al53   1.887       .  S
C46          O56   1.259       .  A
C46          O47   1.266       .  A
C46         C200   1.459       .  S
O47         Al49   1.931       .  S
O48          C50   1.256       .  A
O48         Al49   1.872       .  S
Al49         O57   1.899   1_455  S
Al49        O987   1.927   1_455  S
Al49        O986   1.791   1_455  S
C50          O63   1.266       .  A
C50         C176   1.496       .  S
O51         C989   1.259       .  A
O51         Al53   1.903       .  S
O52          C65   1.260       .  A
O52         Al62   1.858       .  S
Al53         O66   1.937       .  S
Al53        O991   1.938       .  S
Al53         O58   1.792       .  S
O54          C61   1.259       .  A
O54        Al990   1.900   1_455  S
O55          C64   1.260   1_556  A
O55         Al62   1.905   1_556  S
O56        Al990   1.858   1_455  S
O57         C992   1.257       .  A
O58         Al62   1.780       .  S
O58        Al977   1.791       .  S
O59          C60   1.262       .  A
O59        Al977   1.927       .  S
C60         C161   1.475       .  S
C61         O979   1.259       .  A
C61         C137   1.481       .  S
Al62        O982   1.900       .  S
Al62        O984   1.858       .  S
O63        Al981   1.938   1_455  S
C64         O985   1.257       .  A
C64         C152   1.485       .  S
C65          O66   1.266       .  A
C65         C188   1.461       .  S
O67          C82   1.256       .  A
O67         Al75   1.879       .  S
C68          O78   1.260       .  A
C68          O69   1.269       .  A
C68         C128   1.464   1_554  S
O69         Al71   1.940       .  S
O70          C72   1.256       .  A
O70         Al71   1.878       .  S
Al71         O79   1.893       .  S
Al71         O81   1.923       .  S
Al71         O80   1.790       .  S
C72          O85   1.262       .  A
C72         C104   1.494       .  S
O73          C83   1.256       .  A
O73         Al75   1.897       .  S
O74          C87   1.260       .  A
O74         Al84   1.855       .  S
Al75         O88   1.937       .  S
Al75         O85   1.924       .  S
Al75         O80   1.796       .  S
O76          C83   1.258   1_556  A
O76         Al84   1.904   1_556  S
O77          C86   1.258   1_556  A
O77         Al84   1.906   1_556  S
O78         Al84   1.855       .  S
O79          C86   1.254       .  A
O80         Al84   1.786       .  S
O81          C82   1.263       .  A
C82          C89   1.484       .  S
C83         C212   1.482       .  S
C86         C221   1.483       .  S
C87          O88   1.267       .  A
C87         C116   1.457       .  S
C89          C90   1.406       .  A
C89          C94   1.408       .  A
C90          C91   1.407       .  A
C90          H95   1.084       .  S
C91          C92   1.414       .  A
C91          O96   1.371       .  S
C92          C93   1.409       .  A
C93          C94   1.399       .  A
C93          H97   1.083       .  S
C94          O98   1.372       .  S
O96         H100   0.992       .  S
O98          H99   0.992       .  S
C101        C102   1.408       .  A
C101        C106   1.411       .  A
C102        C103   1.409       .  A
C102        H107   1.083       .  S
C103        C104   1.415       .  A
C103        O108   1.371       .  S
C104        C105   1.406       .  A
C105        C106   1.395       .  A
C105        H109   1.083       .  S
C106        O110   1.372       .  S
O108        H112   0.992       .  S
O110        H111   0.992       .  S
C113        C114   1.398       .  A
C113        C118   1.409       .  A
C114        C115   1.397       .  A
C114        H119   1.084       .  S
C115        C348   1.408       .  A
C115        O120   1.373       .  S
C116        C117   1.397       .  A
C116        C347   1.408   1_554  A
C117        C350   1.396       .  A
C117        H121   1.084       .  S
C118        C349   1.396       .  A
C118        O122   1.373       .  S
O120        H124   0.992       .  S
O122        H355   0.992       .  S
H123        O354   0.992       .  S
C125        C126   1.403       .  A
C125        C130   1.402       .  A
C126        C359   1.396       .  A
C126        H131   1.084       .  S
C127        C128   1.403   1_554  A
C127        C358   1.396       .  A
C127        O132   1.371       .  S
C128        C361   1.405       .  A
C129        C130   1.395       .  A
C129        C360   1.405       .  A
C129        H133   1.084       .  S
C130        O134   1.372       .  S
O132        H136   0.992       .  S
O134        H135   0.991       .  S
C137        C138   1.404       .  A
C137       C1302   1.412   1_554  A
C138        C835   1.399       .  A
C138        H143   1.084       .  S
C139        C140   1.412       .  A
C139        C834   1.399   1_545  A
C139        O376   1.371       .  S
C140       C1533   1.404       .  A
C141        C142   1.400       .  A
C141       C1532   1.404       .  A
C141        H145   1.084       .  S
C142       C1297   1.412       .  A
C142        O146   1.373       .  S
O144        C371   1.371       .  S
O144        H148   0.992       .  S
O146        H147   0.992       .  S
C149        C150   1.405       .  A
C149       C1082   1.411       .  A
C150        C383   1.401       .  A
C150        H155   1.084       .  S
C151        C152   1.412       .  A
C151        C382   1.401       .  A
C151        O156   1.372       .  S
C152       C1313   1.406   1_554  A
C153        C154   1.398       .  A
C153       C1312   1.406       .  A
C153        H157   1.084       .  S
C154       C1077   1.411       .  A
C154        O158   1.371       .  S
O156        H160   0.992       .  S
O158        H159   0.991       .  S
C161        C162   1.400       .  A
C161        C166   1.411       .  A
C162        C163   1.404       .  A
C162        H167   1.083       .  S
C163        C164   1.411       .  A
C163        O168   1.372       .  S
C164        C165   1.400       .  A
C165        C166   1.403       .  A
C165        H169   1.084       .  S
C166        O170   1.372       .  S
O168        H172   0.992       .  S
O170        H171   0.992       .  S
C173        C174   1.407       .  A
C173        C178   1.408       .  A
C174        C175   1.411       .  A
C174        H179   1.084       .  S
C175        C176   1.415       .  A
C175        O180   1.371       .  S
C176        C177   1.408       .  A
C177        C178   1.396       .  A
C177        H181   1.083       .  S
C178        O182   1.372       .  S
O180        H184   0.992       .  S
O182        H183   0.992       .  S
C185        C186   1.404       .  A
C185        C190   1.401       .  A
C186        C419   1.400       .  A
C186        H191   1.084       .  S
C187        C188   1.401       .  A
C187        C418   1.400       .  A
C187        O192   1.376       .  S
C188        C421   1.404   1_554  A
C189        C190   1.397       .  A
C189        C420   1.404       .  A
C189        H193   1.084       .  S
C190        O194   1.373       .  S
O192        H196   0.991       .  S
O194        H195   0.991       .  S
C197        C198   1.398       .  A
C197        C202   1.408       .  A
C198        C199   1.395       .  A
C198        H203   1.084       .  S
C199        C432   1.409       .  A
C199        O204   1.372       .  S
C200        C201   1.398       .  A
C200        C431   1.409   1_554  A
C201        C434   1.397       .  A
C201        H205   1.084       .  S
C202        C433   1.397       .  A
C202        O206   1.373       .  S
O204        H208   0.992       .  S
O206        H439   0.992       .  S
H207        O438   0.992       .  S
C209        C210   1.406       .  A
C209        C678   1.410       .  A
C210        C443   1.399       .  A
C210        H447   1.084       .  S
C211        C442   1.399       .  A
C211        C676   1.411       .  A
C211        O216   1.371       .  S
C212        C675   1.411       .  A
C212        C445   1.406   1_554  A
C213        C214   1.398   1_545  A
C213        C444   1.406       .  A
C213        H217   1.084       .  S
C214        C673   1.410       .  A
C214        O218   1.371       .  S
H215        C442   1.084       .  S
O216        H220   0.992       .  S
O218        H219   0.992       .  S
C221        C226   1.412       .  A
C221        C454   1.405   1_554  A
C222        C223   1.399       .  A
C222        C453   1.405       .  A
C222        H227   1.084       .  S
C223        C224   1.412       .  A
C223        O228   1.371       .  S
C224        C225   1.405       .  A
C225        C458   1.399       .  A
C225        H461   1.084       .  S
C226        C457   1.399       .  A
C226        O230   1.371       .  S
O228        H232   0.992       .  S
H229        C457   1.084       .  S
O230        H231   0.992       .  S
O233        C248   1.255       .  A
O233       Al241   1.872       .  S
C234        O244   1.260       .  A
C234        O235   1.266       .  A
C234        C417   1.461       .  S
O235       Al237   1.933       .  S
O236        C238   1.257       .  A
O236       Al237   1.891       .  S
Al237       O245   1.899       .  S
Al237       O247   1.935       .  S
Al237       O246   1.791       .  S
C238        O251   1.261       .  A
C238        C396   1.475       .  S
O239        C249   1.256       .  A
O239       Al241   1.894       .  S
O240        C253   1.259       .  A
O240       Al250   1.858       .  S
Al241       O254   1.931       .  S
Al241       O251   1.921       .  S
Al241       O246   1.793       .  S
O242        C249   1.260       .  A
O242       Al250   1.910       .  S
O243        C252   1.259       .  A
O243       Al250   1.904       .  S
O244       Al250   1.862       .  S
O245        C252   1.258       .  A
O246       Al250   1.784       .  S
O247        C248   1.265       .  A
C248        C405   1.487       .  S
C249        C456   1.484       .  S
C252        C441   1.482       .  S
C253        O254   1.266       .  A
C253        C429   1.458       .  S
O255        C270   1.254       .  A
O255       Al263   1.869       .  S
C256        O266   1.261       .  A
C256        O257   1.268       .  A
C256        C345   1.460       .  S
O257       Al259   1.937       .  S
O258        C260   1.258       .  A
O258       Al259   1.883       .  S
Al259       O267   1.899       .  S
Al259      O1197   1.930       .  S
Al259       O268   1.792       .  S
C260        O273   1.263       .  A
C260        C324   1.493       .  S
O261        C271   1.254       .  A
O261      Al1191   1.892       .  S
O262        C275   1.260       .  A
O262       Al272   1.855   1_455  S
Al263      O1189   1.892   1_455  S
Al263       O276   1.936       .  S
Al263      O1201   1.922   1_455  S
Al263      O1196   1.791   1_455  S
O264        C271   1.258       .  A
O264      Al1200   1.908       .  S
O265        C274   1.258       .  A
O265       Al272   1.906   1_455  S
O266      Al1200   1.858       .  S
O267       C1202   1.257       .  A
O268      Al1191   1.791       .  S
O268      Al1200   1.785       .  S
O269        C270   1.263       .  A
O269      Al1187   1.930   1_455  S
C270        C333   1.488       .  S
C271        C381   1.481       .  S
Al272      O1192   1.908       .  S
Al272      O1194   1.858       .  S
Al272      O1196   1.785       .  S
O273      Al1191   1.922       .  S
C274       O1195   1.257       .  A
C274        C372   1.482       .  S
C275        O276   1.268       .  A
C275        C357   1.458       .  S
O277        C292   1.256       .  A
O277       Al285   1.887       .  S
C278        O288   1.259       .  A
C278        O279   1.266       .  A
C278        C432   1.459       .  S
O279       Al281   1.931       .  S
O280        C282   1.256       .  A
O280       Al281   1.872       .  S
Al281       O289   1.899   1_455  S
Al281      O1219   1.927   1_455  S
Al281      O1218   1.791   1_455  S
C282        O295   1.266       .  A
C282        C408   1.496       .  S
O283       C1221   1.259       .  A
O283       Al285   1.903       .  S
O284        C297   1.260       .  A
O284       Al294   1.858       .  S
Al285       O298   1.937       .  S
Al285      O1223   1.938       .  S
Al285       O290   1.792       .  S
O286        C293   1.259       .  A
O286      Al1222   1.900   1_455  S
O287        C296   1.260       .  A
O287       Al294   1.905       .  S
O288      Al1222   1.858   1_455  S
O289       C1224   1.257       .  A
O290      Al1209   1.791       .  S
O290       Al294   1.780       .  S
O291        C292   1.262       .  A
O291      Al1209   1.927       .  S
C292        C393   1.475       .  S
C293       O1211   1.259       .  A
C293        C369   1.481       .  S
Al294      O1214   1.900       .  S
Al294      O1216   1.858       .  S
O295      Al1213   1.938   1_455  S
C296       O1217   1.257       .  A
C296        C384   1.485       .  S
C297        O298   1.266       .  A
C297        C420   1.461       .  S
O299        C314   1.256       .  A
O299       Al307   1.879       .  S
C300        O310   1.260       .  A
C300        O301   1.269       .  A
C300        C360   1.464       .  S
O301       Al303   1.940       .  S
O302        C304   1.256       .  A
O302       Al303   1.878       .  S
Al303       O311   1.893       .  S
Al303       O313   1.923       .  S
Al303       O312   1.790       .  S
C304        O317   1.262       .  A
C304        C336   1.494       .  S
O305        C315   1.256       .  A
O305       Al307   1.897       .  S
O306        C319   1.260       .  A
O306       Al316   1.855       .  S
Al307       O320   1.937       .  S
Al307       O317   1.924       .  S
Al307       O312   1.796       .  S
O308        C315   1.258       .  A
O308       Al316   1.904       .  S
O309        C318   1.258       .  A
O309       Al316   1.906       .  S
O310       Al316   1.855       .  S
O311        C318   1.254       .  A
O312       Al316   1.786       .  S
O313        C314   1.263       .  A
C314        C321   1.484       .  S
C315        C444   1.482       .  S
C318        C453   1.483       .  S
C319        O320   1.267       .  A
C319        C348   1.457       .  S
C321        C322   1.406       .  A
C321        C326   1.408       .  A
C322        C323   1.407       .  A
C322        H327   1.084       .  S
C323        C324   1.414       .  A
C323        O328   1.371       .  S
C324        C325   1.409       .  A
C325        C326   1.399       .  A
C325        H329   1.083       .  S
C326        O330   1.372       .  S
O328        H332   0.992       .  S
O330        H331   0.992       .  S
C333        C334   1.408       .  A
C333        C338   1.411       .  A
C334        C335   1.409       .  A
C334        H339   1.083       .  S
C335        C336   1.415       .  A
C335        O340   1.371       .  S
C336        C337   1.406       .  A
C337        C338   1.395       .  A
C337        H341   1.083       .  S
C338        O342   1.372       .  S
O340        H344   0.992       .  S
O342        H343   0.992       .  S
C345        C346   1.398       .  A
C345        C350   1.409   1_556  A
C346        C347   1.397       .  A
C346        H351   1.084       .  S
C347        O352   1.373       .  S
C348        C349   1.397       .  A
C349        H353   1.084       .  S
C350        O354   1.373       .  S
O352        H356   0.992       .  S
C357        C358   1.403   1_556  A
C357        C362   1.402       .  A
C358        H363   1.084       .  S
C359        C360   1.403       .  A
C359        O364   1.371       .  S
C361        C362   1.395       .  A
C361        H365   1.084       .  S
C362        O366   1.372       .  S
O364        H368   0.992       .  S
O366        H367   0.991       .  S
C369        C370   1.404       .  A
C369       C1070   1.412       .  A
C370        C603   1.399       .  A
C370        H375   1.084       .  S
C371        C602   1.399   1_545  A
C371        C372   1.412   1_554  A
C372       C1765   1.404       .  A
C373       C1764   1.404       .  A
C373        C374   1.400       .  A
C373        H377   1.084       .  S
C374       C1065   1.412   1_556  A
C374        O378   1.373       .  S
O376        H380   0.992       .  S
O378        H379   0.992       .  S
C381        C382   1.405   1_556  A
C381       C1314   1.411       .  A
C382        H387   1.084       .  S
C383        C384   1.412       .  A
C383        O388   1.372       .  S
C384       C1081   1.406       .  A
C385       C1080   1.406   1_556  A
C385        C386   1.398       .  A
C385        H389   1.084       .  S
C386       C1309   1.411       .  A
C386        O390   1.371       .  S
O388        H392   0.992       .  S
O390        H391   0.991       .  S
C393        C394   1.400       .  A
C393        C398   1.411       .  A
C394        C395   1.404       .  A
C394        H399   1.083       .  S
C395        C396   1.411       .  A
C395        O400   1.372       .  S
C396        C397   1.400       .  A
C397        C398   1.403       .  A
C397        H401   1.084       .  S
C398        O402   1.372       .  S
O400        H404   0.992       .  S
O402        H403   0.992       .  S
C405        C406   1.407       .  A
C405        C410   1.408       .  A
C406        C407   1.411       .  A
C406        H411   1.084       .  S
C407        C408   1.415       .  A
C407        O412   1.371       .  S
C408        C409   1.408       .  A
C409        C410   1.396       .  A
C409        H413   1.083       .  S
C410        O414   1.372       .  S
O412        H416   0.992       .  S
O414        H415   0.992       .  S
C417        C418   1.404   1_556  A
C417        C422   1.401       .  A
C418        H423   1.084       .  S
C419        C420   1.401       .  A
C419        O424   1.376       .  S
C421        C422   1.397       .  A
C421        H425   1.084       .  S
C422        O426   1.373       .  S
O424        H428   0.991       .  S
O426        H427   0.991       .  S
C429        C430   1.398       .  A
C429        C434   1.408   1_556  A
C430        C431   1.395       .  A
C430        H435   1.084       .  S
C431        O436   1.372       .  S
C432        C433   1.398       .  A
C433        H437   1.084       .  S
C434        O438   1.373       .  S
O436        H440   0.992       .  S
C441        C442   1.406   1_556  A
C441        C910   1.410       .  A
C443        C908   1.411       .  A
C443        O448   1.371       .  S
C444        C907   1.411       .  A
C445        C446   1.398   1_545  A
C445        H449   1.084       .  S
C446        C905   1.410       .  A
C446        O450   1.371       .  S
O448        H452   0.992       .  S
O450        H451   0.992       .  S
C453        C458   1.412       .  A
C454        C455   1.399       .  A
C454        H459   1.084       .  S
C455        C456   1.412       .  A
C455        O460   1.371       .  S
C456        C457   1.405   1_556  A
C458        O462   1.371       .  S
O460        H464   0.992       .  S
O462        H463   0.992       .  S
O465        C480   1.255       .  A
O465       Al473   1.872       .  S
C466        O476   1.260       .  A
C466        O467   1.266       .  A
C466        C649   1.461       .  S
O467       Al469   1.933       .  S
O468        C470   1.257       .  A
O468       Al469   1.891       .  S
Al469       O477   1.899       .  S
Al469       O479   1.935       .  S
Al469       O478   1.791       .  S
C470        O483   1.261       .  A
C470        C628   1.475       .  S
O471        C481   1.256       .  A
O471       Al473   1.894       .  S
O472        C485   1.259       .  A
O472       Al482   1.858       .  S
Al473       O486   1.931       .  S
Al473       O483   1.921       .  S
Al473       O478   1.793       .  S
O474        C481   1.260       .  A
O474       Al482   1.910       .  S
O475        C484   1.259       .  A
O475       Al482   1.904       .  S
O476       Al482   1.862       .  S
O477        C484   1.258       .  A
O478       Al482   1.784       .  S
O479        C480   1.265       .  A
C480        C637   1.487       .  S
C481        C688   1.484       .  S
C484        C673   1.482       .  S
C485        O486   1.266       .  A
C485        C661   1.458       .  S
O487        C502   1.254       .  A
O487       Al495   1.869       .  S
C488        O498   1.261       .  A
C488        O489   1.268       .  A
C488        C577   1.460       .  S
O489       Al491   1.937       .  S
O490        C492   1.258       .  A
O490       Al491   1.883       .  S
Al491       O499   1.899       .  S
Al491      O1429   1.930       .  S
Al491       O500   1.792       .  S
C492        O505   1.263       .  A
C492        C556   1.493       .  S
O493        C503   1.254       .  A
O493      Al1423   1.892       .  S
O494        C507   1.260       .  A
O494       Al504   1.855   1_455  S
Al495      O1421   1.892   1_455  S
Al495       O508   1.936       .  S
Al495      O1433   1.922   1_455  S
Al495      O1428   1.791   1_455  S
O496        C503   1.258       .  A
O496      Al1432   1.908       .  S
O497        C506   1.258       .  A
O497       Al504   1.906   1_455  S
O498      Al1432   1.858       .  S
O499       C1434   1.257       .  A
O500      Al1423   1.791       .  S
O500      Al1432   1.785       .  S
O501        C502   1.263       .  A
O501      Al1419   1.930   1_455  S
C502        C565   1.488       .  S
C503        C613   1.481       .  S
Al504      O1424   1.908       .  S
Al504      O1426   1.858       .  S
Al504      O1428   1.785       .  S
O505      Al1423   1.922       .  S
C506       O1427   1.257       .  A
C506        C604   1.482       .  S
C507        O508   1.268       .  A
C507        C589   1.458       .  S
O509        C524   1.256       .  A
O509       Al517   1.887       .  S
C510        O520   1.259       .  A
C510        O511   1.266       .  A
C510        C664   1.459       .  S
O511       Al513   1.931       .  S
O512        C514   1.256       .  A
O512       Al513   1.872       .  S
Al513       O521   1.899   1_455  S
Al513      O1451   1.927   1_455  S
Al513      O1450   1.791   1_455  S
C514        O527   1.266       .  A
C514        C640   1.496       .  S
O515       C1453   1.259       .  A
O515       Al517   1.903       .  S
O516        C529   1.260       .  A
O516       Al526   1.858       .  S
Al517       O530   1.937       .  S
Al517      O1455   1.938       .  S
Al517       O522   1.792       .  S
O518        C525   1.259       .  A
O518      Al1454   1.900   1_455  S
O519        C528   1.260   1_556  A
O519       Al526   1.905   1_556  S
O520      Al1454   1.858   1_455  S
O521       C1456   1.257       .  A
O522      Al1441   1.791       .  S
O522       Al526   1.780       .  S
O523        C524   1.262       .  A
O523      Al1441   1.927       .  S
C524        C625   1.475       .  S
C525       O1443   1.259       .  A
C525        C601   1.481       .  S
Al526      O1446   1.900       .  S
Al526      O1448   1.858       .  S
O527      Al1445   1.938   1_455  S
C528       O1449   1.257       .  A
C528        C616   1.485       .  S
C529        O530   1.266       .  A
C529        C652   1.461       .  S
O531        C546   1.256       .  A
O531       Al539   1.879       .  S
C532        O542   1.260       .  A
C532        O533   1.269       .  A
C532        C592   1.464   1_554  S
O533       Al535   1.940       .  S
O534        C536   1.256       .  A
O534       Al535   1.878       .  S
Al535       O543   1.893       .  S
Al535       O545   1.923       .  S
Al535       O544   1.790       .  S
C536        O549   1.262       .  A
C536        C568   1.494       .  S
O537        C547   1.256       .  A
O537       Al539   1.897       .  S
O538        C551   1.260       .  A
O538       Al548   1.855       .  S
Al539       O552   1.937       .  S
Al539       O549   1.924       .  S
Al539       O544   1.796       .  S
O540        C547   1.258   1_556  A
O540       Al548   1.904   1_556  S
O541        C550   1.258   1_556  A
O541       Al548   1.906   1_556  S
O542       Al548   1.855       .  S
O543        C550   1.254       .  A
O544       Al548   1.786       .  S
O545        C546   1.263       .  A
C546        C553   1.484       .  S
C547        C676   1.482       .  S
C550        C685   1.483       .  S
C551        O552   1.267       .  A
C551        C580   1.457       .  S
C553        C554   1.406       .  A
C553        C558   1.408       .  A
C554        C555   1.407       .  A
C554        H559   1.084       .  S
C555        C556   1.414       .  A
C555        O560   1.371       .  S
C556        C557   1.409       .  A
C557        C558   1.399       .  A
C557        H561   1.083       .  S
C558        O562   1.372       .  S
O560        H564   0.992       .  S
O562        H563   0.992       .  S
C565        C566   1.408       .  A
C565        C570   1.411       .  A
C566        C567   1.409       .  A
C566        H571   1.083       .  S
C567        C568   1.415       .  A
C567        O572   1.371       .  S
C568        C569   1.406       .  A
C569        C570   1.395       .  A
C569        H573   1.083       .  S
C570        O574   1.372       .  S
O572        H576   0.992       .  S
O574        H575   0.992       .  S
C577        C578   1.398       .  A
C577        C582   1.409       .  A
C578        C579   1.397       .  A
C578        H583   1.084       .  S
C579        C812   1.408       .  A
C579        O584   1.373       .  S
C580        C811   1.408   1_554  A
C580        C581   1.397       .  A
C581        C814   1.396       .  A
C581        H585   1.084       .  S
C582        C813   1.396       .  A
C582        O586   1.373       .  S
O584        H588   0.992       .  S
O586        H819   0.992       .  S
H587        O818   0.992       .  S
C589        C590   1.403       .  A
C589        C594   1.402       .  A
C590        C823   1.396       .  A
C590        H595   1.084       .  S
C591        C822   1.396       .  A
C591        C592   1.403   1_554  A
C591        O596   1.371       .  S
C592        C825   1.405       .  A
C593        C824   1.405       .  A
C593        C594   1.395       .  A
C593        H597   1.084       .  S
C594        O598   1.372       .  S
O596        H600   0.992       .  S
O598        H599   0.991       .  S
C601        C602   1.404       .  A
C601       C1766   1.412   1_554  A
C602        H607   1.084       .  S
C603        C604   1.412       .  A
C603        O840   1.371       .  S
C604       C1069   1.404       .  A
C605       C1068   1.404       .  A
C605        C606   1.400   1_545  A
C605        H609   1.084       .  S
C606       C1761   1.412       .  A
C606        O610   1.373       .  S
O608        C835   1.371       .  S
O608        H612   0.992       .  S
O610        H611   0.992       .  S
C613        C614   1.405       .  A
C613       C1546   1.411       .  A
C614        C847   1.401       .  A
C614        H619   1.084       .  S
C615        C846   1.401       .  A
C615        C616   1.412       .  A
C615        O620   1.372       .  S
C616       C1777   1.406   1_554  A
C617       C1776   1.406       .  A
C617        C618   1.398       .  A
C617        H621   1.084       .  S
C618       C1541   1.411       .  A
C618        O622   1.371       .  S
O620        H624   0.992       .  S
O622        H623   0.991       .  S
C625        C626   1.400       .  A
C625        C630   1.411       .  A
C626        C627   1.404       .  A
C626        H631   1.083       .  S
C627        C628   1.411       .  A
C627        O632   1.372       .  S
C628        C629   1.400       .  A
C629        C630   1.403       .  A
C629        H633   1.084       .  S
C630        O634   1.372       .  S
O632        H636   0.992       .  S
O634        H635   0.992       .  S
C637        C638   1.407       .  A
C637        C642   1.408       .  A
C638        C639   1.411       .  A
C638        H643   1.084       .  S
C639        C640   1.415       .  A
C639        O644   1.371       .  S
C640        C641   1.408       .  A
C641        C642   1.396       .  A
C641        H645   1.083       .  S
C642        O646   1.372       .  S
O644        H648   0.992       .  S
O646        H647   0.992       .  S
C649        C650   1.404       .  A
C649        C654   1.401       .  A
C650        C883   1.400       .  A
C650        H655   1.084       .  S
C651        C882   1.400       .  A
C651        C652   1.401       .  A
C651        O656   1.376       .  S
C652        C885   1.404   1_554  A
C653        C884   1.404       .  A
C653        C654   1.397       .  A
C653        H657   1.084       .  S
C654        O658   1.373       .  S
O656        H660   0.991       .  S
O658        H659   0.991       .  S
C661        C662   1.398       .  A
C661        C666   1.408       .  A
C662        C663   1.395       .  A
C662        H667   1.084       .  S
C663        C896   1.409       .  A
C663        O668   1.372       .  S
C664        C895   1.409   1_554  A
C664        C665   1.398       .  A
C665        C898   1.397       .  A
C665        H669   1.084       .  S
C666        C897   1.397       .  A
C666        O670   1.373       .  S
O668        H672   0.992       .  S
O670        H903   0.992       .  S
H671        O902   0.992       .  S
C673        C674   1.406       .  A
C674        C907   1.399   1_565  A
C674        H911   1.084       .  S
C675        C906   1.399   1_545  A
C675        O680   1.371       .  S
C676        C909   1.406   1_554  A
C677        C908   1.406       .  A
C677        C678   1.398       .  A
C677        H681   1.084       .  S
C678        O682   1.371       .  S
H679        C906   1.084       .  S
O680        H684   0.992       .  S
O682        H683   0.992       .  S
C685        C918   1.405   1_554  A
C685        C690   1.412       .  A
C686        C917   1.405       .  A
C686        C687   1.399       .  A
C686        H691   1.084       .  S
C687        C688   1.412       .  A
C687        O692   1.371       .  S
C688        C689   1.405       .  A
C689        C922   1.399       .  A
C689        H925   1.084       .  S
C690        C921   1.399       .  A
C690        O694   1.371       .  S
O692        H696   0.992       .  S
H693        C921   1.084       .  S
O694        H695   0.992       .  S
O697        C712   1.255       .  A
O697       Al705   1.872       .  S
C698        O708   1.260       .  A
C698        O699   1.266       .  A
C698        C881   1.461       .  S
O699       Al701   1.933       .  S
O700        C702   1.257       .  A
O700       Al701   1.891       .  S
Al701       O709   1.899       .  S
Al701       O711   1.935       .  S
Al701       O710   1.791       .  S
C702        O715   1.261       .  A
C702        C860   1.475       .  S
O703        C713   1.256       .  A
O703       Al705   1.894       .  S
O704        C717   1.259       .  A
O704       Al714   1.858       .  S
Al705       O718   1.931       .  S
Al705       O715   1.921       .  S
Al705       O710   1.793       .  S
O706        C713   1.260       .  A
O706       Al714   1.910       .  S
O707        C716   1.259       .  A
O707       Al714   1.904       .  S
O708       Al714   1.862       .  S
O709        C716   1.258       .  A
O710       Al714   1.784       .  S
O711        C712   1.265       .  A
C712        C869   1.487       .  S
C713        C920   1.484       .  S
C716        C905   1.482       .  S
C717        O718   1.266       .  A
C717        C893   1.458       .  S
O719        C734   1.254       .  A
O719       Al727   1.869       .  S
C720        O730   1.261       .  A
C720        O721   1.268       .  A
C720        C809   1.460       .  S
O721       Al723   1.937       .  S
O722        C724   1.258       .  A
O722       Al723   1.883       .  S
Al723       O731   1.899       .  S
Al723      O1661   1.930       .  S
Al723       O732   1.792       .  S
C724        O737   1.263       .  A
C724        C788   1.493       .  S
O725        C735   1.254       .  A
O725      Al1655   1.892       .  S
O726        C739   1.260       .  A
O726       Al736   1.855   1_455  S
Al727      O1653   1.892   1_455  S
Al727       O740   1.936       .  S
Al727      O1665   1.922   1_455  S
Al727      O1660   1.791   1_455  S
O728        C735   1.258       .  A
O728      Al1664   1.908       .  S
O729        C738   1.258       .  A
O729       Al736   1.906   1_455  S
O730      Al1664   1.858       .  S
O731       C1666   1.257       .  A
O732      Al1655   1.791       .  S
O732      Al1664   1.785       .  S
O733        C734   1.263       .  A
O733      Al1651   1.930   1_455  S
C734        C797   1.488       .  S
C735        C845   1.481       .  S
Al736      O1656   1.908       .  S
Al736      O1658   1.858       .  S
Al736      O1660   1.785       .  S
O737      Al1655   1.922       .  S
C738       O1659   1.257       .  A
C738        C836   1.482       .  S
C739        O740   1.268       .  A
C739        C821   1.458       .  S
O741        C756   1.256       .  A
O741       Al749   1.887       .  S
C742        O752   1.259       .  A
C742        O743   1.266       .  A
C742        C896   1.459       .  S
O743       Al745   1.931       .  S
O744        C746   1.256       .  A
O744       Al745   1.872       .  S
Al745       O753   1.899   1_455  S
Al745      O1683   1.927   1_455  S
Al745      O1682   1.791   1_455  S
C746        O759   1.266       .  A
C746        C872   1.496       .  S
O747       C1685   1.259       .  A
O747       Al749   1.903       .  S
O748        C761   1.260       .  A
O748       Al758   1.858       .  S
Al749       O762   1.937       .  S
Al749      O1687   1.938       .  S
Al749       O754   1.792       .  S
O750        C757   1.259       .  A
O750      Al1686   1.900   1_455  S
O751        C760   1.260       .  A
O751       Al758   1.905       .  S
O752      Al1686   1.858   1_455  S
O753       C1688   1.257       .  A
O754      Al1673   1.791       .  S
O754       Al758   1.780       .  S
O755        C756   1.262       .  A
O755      Al1673   1.927       .  S
C756        C857   1.475       .  S
C757       O1675   1.259       .  A
C757        C833   1.481       .  S
Al758      O1678   1.900       .  S
Al758      O1680   1.858       .  S
O759      Al1677   1.938   1_455  S
C760       O1681   1.257       .  A
C760        C848   1.485       .  S
C761        O762   1.266       .  A
C761        C884   1.461       .  S
O763        C778   1.256       .  A
O763       Al771   1.879       .  S
C764        O774   1.260       .  A
C764        O765   1.269       .  A
C764        C824   1.464       .  S
O765       Al767   1.940       .  S
O766        C768   1.256       .  A
O766       Al767   1.878       .  S
Al767       O775   1.893       .  S
Al767       O777   1.923       .  S
Al767       O776   1.790       .  S
C768        O781   1.262       .  A
C768        C800   1.494       .  S
O769        C779   1.256       .  A
O769       Al771   1.897       .  S
O770        C783   1.260       .  A
O770       Al780   1.855       .  S
Al771       O784   1.937       .  S
Al771       O781   1.924       .  S
Al771       O776   1.796       .  S
O772        C779   1.258       .  A
O772       Al780   1.904       .  S
O773        C782   1.258       .  A
O773       Al780   1.906       .  S
O774       Al780   1.855       .  S
O775        C782   1.254       .  A
O776       Al780   1.786       .  S
O777        C778   1.263       .  A
C778        C785   1.484       .  S
C779        C908   1.482       .  S
C782        C917   1.483       .  S
C783        O784   1.267       .  A
C783        C812   1.457       .  S
C785        C786   1.406       .  A
C785        C790   1.408       .  A
C786        C787   1.407       .  A
C786        H791   1.084       .  S
C787        C788   1.414       .  A
C787        O792   1.371       .  S
C788        C789   1.409       .  A
C789        C790   1.399       .  A
C789        H793   1.083       .  S
C790        O794   1.372       .  S
O792        H796   0.992       .  S
O794        H795   0.992       .  S
C797        C798   1.408       .  A
C797        C802   1.411       .  A
C798        C799   1.409       .  A
C798        H803   1.083       .  S
C799        C800   1.415       .  A
C799        O804   1.371       .  S
C800        C801   1.406       .  A
C801        C802   1.395       .  A
C801        H805   1.083       .  S
C802        O806   1.372       .  S
O804        H808   0.992       .  S
O806        H807   0.992       .  S
C809        C810   1.398       .  A
C809        C814   1.409   1_556  A
C810        C811   1.397       .  A
C810        H815   1.084       .  S
C811        O816   1.373       .  S
C812        C813   1.397       .  A
C813        H817   1.084       .  S
C814        O818   1.373       .  S
O816        H820   0.992       .  S
C821        C822   1.403   1_556  A
C821        C826   1.402       .  A
C822        H827   1.084       .  S
C823        C824   1.403       .  A
C823        O828   1.371       .  S
C825        C826   1.395       .  A
C825        H829   1.084       .  S
C826        O830   1.372       .  S
O828        H832   0.992       .  S
O830        H831   0.991       .  S
C833        C834   1.404       .  A
C833       C1534   1.412       .  A
C834        H839   1.084       .  S
C835        C836   1.412   1_554  A
C836       C1301   1.404       .  A
C837       C1300   1.404       .  A
C837        C838   1.400   1_545  A
C837        H841   1.084       .  S
C838       C1529   1.412   1_556  A
C838        O842   1.373       .  S
O840        H844   0.992       .  S
O842        H843   0.992       .  S
C845        C846   1.405   1_556  A
C845       C1778   1.411       .  A
C846        H851   1.084       .  S
C847        C848   1.412       .  A
C847        O852   1.372       .  S
C848       C1545   1.406       .  A
C849       C1544   1.406   1_556  A
C849        C850   1.398       .  A
C849        H853   1.084       .  S
C850       C1773   1.411       .  A
C850        O854   1.371       .  S
O852        H856   0.992       .  S
O854        H855   0.991       .  S
C857        C858   1.400       .  A
C857        C862   1.411       .  A
C858        C859   1.404       .  A
C858        H863   1.083       .  S
C859        C860   1.411       .  A
C859        O864   1.372       .  S
C860        C861   1.400       .  A
C861        C862   1.403       .  A
C861        H865   1.084       .  S
C862        O866   1.372       .  S
O864        H868   0.992       .  S
O866        H867   0.992       .  S
C869        C870   1.407       .  A
C869        C874   1.408       .  A
C870        C871   1.411       .  A
C870        H875   1.084       .  S
C871        C872   1.415       .  A
C871        O876   1.371       .  S
C872        C873   1.408       .  A
C873        C874   1.396       .  A
C873        H877   1.083       .  S
C874        O878   1.372       .  S
O876        H880   0.992       .  S
O878        H879   0.992       .  S
C881        C882   1.404   1_556  A
C881        C886   1.401       .  A
C882        H887   1.084       .  S
C883        C884   1.401       .  A
C883        O888   1.376       .  S
C885        C886   1.397       .  A
C885        H889   1.084       .  S
C886        O890   1.373       .  S
O888        H892   0.991       .  S
O890        H891   0.991       .  S
C893        C894   1.398       .  A
C893        C898   1.408   1_556  A
C894        C895   1.395       .  A
C894        H899   1.084       .  S
C895        O900   1.372       .  S
C896        C897   1.398       .  A
C897        H901   1.084       .  S
C898        O902   1.373       .  S
O900        H904   0.992       .  S
C905        C906   1.406   1_556  A
C907        O912   1.371       .  S
C909        C910   1.398       .  A
C909        H913   1.084       .  S
C910        O914   1.371       .  S
O912        H916   0.992       .  S
O914        H915   0.992       .  S
C917        C922   1.412       .  A
C918        C919   1.399       .  A
C918        H923   1.084       .  S
C919        C920   1.412       .  A
C919        O924   1.371       .  S
C920        C921   1.405   1_556  A
C922        O926   1.371       .  S
O924        H928   0.992       .  S
O926        H927   0.992       .  S
O929        C944   1.255       .  A
O929       Al937   1.872       .  S
C930        O940   1.260       .  A
C930        O931   1.266       .  A
C930       C1113   1.461       .  S
O931       Al933   1.933       .  S
O932        C934   1.257       .  A
O932       Al933   1.891       .  S
Al933       O941   1.899       .  S
Al933       O943   1.935       .  S
Al933       O942   1.791       .  S
C934        O947   1.261       .  A
C934       C1092   1.475       .  S
O935        C945   1.256       .  A
O935       Al937   1.894       .  S
O936        C949   1.259       .  A
O936       Al946   1.858       .  S
Al937       O950   1.931       .  S
Al937       O947   1.921       .  S
Al937       O942   1.793       .  S
O938        C945   1.260       .  A
O938       Al946   1.910       .  S
O939        C948   1.259       .  A
O939       Al946   1.904       .  S
O940       Al946   1.862       .  S
O941        C948   1.258       .  A
O942       Al946   1.784       .  S
O943        C944   1.265       .  A
C944       C1101   1.487       .  S
C945       C1152   1.484       .  S
C948       C1137   1.482       .  S
C949        O950   1.266       .  A
C949       C1125   1.458       .  S
O951        C966   1.254       .  A
O951       Al959   1.869       .  S
C952        O962   1.261       .  A
C952        O953   1.268       .  A
C952       C1041   1.460       .  S
O953       Al955   1.937       .  S
O954        C956   1.258       .  A
O954       Al955   1.883       .  S
Al955       O963   1.899   1_655  S
Al955       O964   1.792       .  S
C956        O969   1.263       .  A
C956       C1020   1.493       .  S
O957        C967   1.254       .  A
O958        C971   1.260       .  A
O958       Al968   1.855       .  S
Al959       O972   1.936       .  S
O960        C967   1.258       .  A
O961        C970   1.258       .  A
O961       Al968   1.906       .  S
O965        C966   1.263       .  A
C966       C1029   1.488       .  S
C967       C1077   1.481       .  S
C970       C1068   1.482       .  S
C971        O972   1.268       .  A
C971       C1053   1.458       .  S
O973        C988   1.256       .  A
O973       Al981   1.887       .  S
C974        O984   1.259       .  A
C974        O975   1.266       .  A
C974       C1128   1.459       .  S
O975       Al977   1.931       .  S
O976        C978   1.256       .  A
O976       Al977   1.872       .  S
Al977       O985   1.899       .  S
C978        O991   1.266       .  A
C978       C1104   1.496       .  S
O979       Al981   1.903   1_455  S
O980        C993   1.260       .  A
O980       Al990   1.858       .  S
Al981       O994   1.937       .  S
Al981       O986   1.792       .  S
O982        C989   1.259       .  A
O983        C992   1.260   1_556  A
O983       Al990   1.905   1_556  S
O986       Al990   1.780       .  S
O987        C988   1.262       .  A
C988       C1089   1.475       .  S
C989       C1065   1.481       .  S
C992       C1080   1.485       .  S
C993        O994   1.266       .  A
C993       C1116   1.461       .  S
O995       C1010   1.256       .  A
O995      Al1003   1.879       .  S
C996       O1006   1.260       .  A
C996        O997   1.269       .  A
C996       C1056   1.464   1_554  S
O997       Al999   1.940       .  S
O998       C1000   1.256       .  A
O998       Al999   1.878       .  S
Al999      O1007   1.893       .  S
Al999      O1009   1.923       .  S
Al999      O1008   1.790       .  S
C1000      O1013   1.262       .  A
C1000      C1032   1.494       .  S
O1001      C1011   1.256       .  A
O1001     Al1003   1.897       .  S
O1002      C1015   1.260       .  A
O1002     Al1012   1.855       .  S
Al1003     O1016   1.937       .  S
Al1003     O1013   1.924       .  S
Al1003     O1008   1.796       .  S
O1004      C1011   1.258   1_556  A
O1004     Al1012   1.904   1_556  S
O1005      C1014   1.258   1_556  A
O1005     Al1012   1.906   1_556  S
O1006     Al1012   1.855       .  S
O1007      C1014   1.254       .  A
O1008     Al1012   1.786       .  S
O1009      C1010   1.263       .  A
C1010      C1017   1.484       .  S
C1011      C1140   1.482       .  S
C1014      C1149   1.483       .  S
C1015      O1016   1.267       .  A
C1015      C1044   1.457       .  S
C1017      C1018   1.406       .  A
C1017      C1022   1.408       .  A
C1018      C1019   1.407       .  A
C1018      H1023   1.084       .  S
C1019      C1020   1.414       .  A
C1019      O1024   1.371       .  S
C1020      C1021   1.409       .  A
C1021      C1022   1.399       .  A
C1021      H1025   1.083       .  S
C1022      O1026   1.372       .  S
O1024      H1028   0.992       .  S
O1026      H1027   0.992       .  S
C1029      C1030   1.408       .  A
C1029      C1034   1.411       .  A
C1030      C1031   1.409       .  A
C1030      H1035   1.083       .  S
C1031      C1032   1.415       .  A
C1031      O1036   1.371       .  S
C1032      C1033   1.406       .  A
C1033      C1034   1.395       .  A
C1033      H1037   1.083       .  S
C1034      O1038   1.372       .  S
O1036      H1040   0.992       .  S
O1038      H1039   0.992       .  S
C1041      C1042   1.398       .  A
C1041      C1046   1.409       .  A
C1042      C1043   1.397       .  A
C1042      H1047   1.084       .  S
C1043      C1276   1.408       .  A
C1043      O1048   1.373       .  S
C1044      C1275   1.408   1_554  A
C1044      C1045   1.397       .  A
C1045      C1278   1.396       .  A
C1045      H1049   1.084       .  S
C1046      C1277   1.396       .  A
C1046      O1050   1.373       .  S
O1048      H1052   0.992       .  S
O1050      H1283   0.992       .  S
H1051      O1282   0.992       .  S
C1053      C1054   1.403       .  A
C1053      C1058   1.402       .  A
C1054      C1287   1.396       .  A
C1054      H1059   1.084       .  S
C1055      C1286   1.396       .  A
C1055      C1056   1.403   1_554  A
C1055      O1060   1.371       .  S
C1056      C1289   1.405       .  A
C1057      C1288   1.405       .  A
C1057      C1058   1.395       .  A
C1057      H1061   1.084       .  S
C1058      O1062   1.372       .  S
O1060      H1064   0.992       .  S
O1062      H1063   0.991       .  S
C1065      C1066   1.404       .  A
C1066      C1763   1.399       .  A
C1066      H1071   1.084       .  S
C1067      C1762   1.399   1_545  A
C1067      C1068   1.412       .  A
C1067      O1304   1.371       .  S
C1069      C1070   1.400       .  A
C1069      H1073   1.084       .  S
C1070      O1074   1.373       .  S
O1072      C1299   1.371       .  S
O1072      H1076   0.992       .  S
O1074      H1075   0.992       .  S
C1077      C1078   1.405       .  A
C1078      C1311   1.401       .  A
C1078      H1083   1.084       .  S
C1079      C1310   1.401       .  A
C1079      C1080   1.412       .  A
C1079      O1084   1.372       .  S
C1081      C1082   1.398       .  A
C1081      H1085   1.084       .  S
C1082      O1086   1.371       .  S
O1084      H1088   0.992       .  S
O1086      H1087   0.991       .  S
C1089      C1090   1.400       .  A
C1089      C1094   1.411       .  A
C1090      C1091   1.404       .  A
C1090      H1095   1.083       .  S
C1091      C1092   1.411       .  A
C1091      O1096   1.372       .  S
C1092      C1093   1.400       .  A
C1093      C1094   1.403       .  A
C1093      H1097   1.084       .  S
C1094      O1098   1.372       .  S
O1096      H1100   0.992       .  S
O1098      H1099   0.992       .  S
C1101      C1102   1.407       .  A
C1101      C1106   1.408       .  A
C1102      C1103   1.411       .  A
C1102      H1107   1.084       .  S
C1103      C1104   1.415       .  A
C1103      O1108   1.371       .  S
C1104      C1105   1.408       .  A
C1105      C1106   1.396       .  A
C1105      H1109   1.083       .  S
C1106      O1110   1.372       .  S
O1108      H1112   0.992       .  S
O1110      H1111   0.992       .  S
C1113      C1114   1.404       .  A
C1113      C1118   1.401       .  A
C1114      C1347   1.400       .  A
C1114      H1119   1.084       .  S
C1115      C1346   1.400       .  A
C1115      C1116   1.401       .  A
C1115      O1120   1.376       .  S
C1116      C1349   1.404   1_554  A
C1117      C1348   1.404       .  A
C1117      C1118   1.397       .  A
C1117      H1121   1.084       .  S
C1118      O1122   1.373       .  S
O1120      H1124   0.991       .  S
O1122      H1123   0.991       .  S
C1125      C1126   1.398       .  A
C1125      C1130   1.408       .  A
C1126      C1127   1.395       .  A
C1126      H1131   1.084       .  S
C1127      C1360   1.409       .  A
C1127      O1132   1.372       .  S
C1128      C1359   1.409   1_554  A
C1128      C1129   1.398       .  A
C1129      C1362   1.397       .  A
C1129      H1133   1.084       .  S
C1130      C1361   1.397       .  A
C1130      O1134   1.373       .  S
O1132      H1136   0.992       .  S
O1134      H1367   0.992       .  S
H1135      O1366   0.992       .  S
C1137      C1138   1.406       .  A
C1137      C1606   1.410       .  A
C1138      C1371   1.399       .  A
C1138      H1375   1.084       .  S
C1139      C1370   1.399       .  A
C1139      C1604   1.411       .  A
C1139      O1144   1.371       .  S
C1140      C1603   1.411       .  A
C1140      C1373   1.406   1_554  A
C1141      C1372   1.406       .  A
C1141      C1142   1.398   1_545  A
C1141      H1145   1.084       .  S
C1142      C1601   1.410       .  A
C1142      O1146   1.371       .  S
H1143      C1370   1.084       .  S
O1144      H1148   0.992       .  S
O1146      H1147   0.992       .  S
C1149      C1382   1.405   1_554  A
C1149      C1154   1.412       .  A
C1150      C1381   1.405       .  A
C1150      C1151   1.399       .  A
C1150      H1155   1.084       .  S
C1151      C1152   1.412       .  A
C1151      O1156   1.371       .  S
C1152      C1153   1.405       .  A
C1153      C1386   1.399       .  A
C1153      H1389   1.084       .  S
C1154      C1385   1.399       .  A
C1154      O1158   1.371       .  S
O1156      H1160   0.992       .  S
H1157      C1385   1.084       .  S
O1158      H1159   0.992       .  S
O1161      C1176   1.255       .  A
O1161     Al1169   1.872       .  S
C1162      O1172   1.260       .  A
C1162      O1163   1.266       .  A
C1162      C1345   1.461       .  S
O1163     Al1165   1.933       .  S
O1164      C1166   1.257       .  A
O1164     Al1165   1.891       .  S
Al1165     O1173   1.899       .  S
Al1165     O1175   1.935       .  S
Al1165     O1174   1.791       .  S
C1166      O1179   1.261       .  A
C1166      C1324   1.475       .  S
O1167      C1177   1.256       .  A
O1167     Al1169   1.894       .  S
O1168      C1181   1.259       .  A
O1168     Al1178   1.858       .  S
Al1169     O1182   1.931       .  S
Al1169     O1179   1.921       .  S
Al1169     O1174   1.793       .  S
O1170      C1177   1.260       .  A
O1170     Al1178   1.910       .  S
O1171      C1180   1.259       .  A
O1171     Al1178   1.904       .  S
O1172     Al1178   1.862       .  S
O1173      C1180   1.258       .  A
O1174     Al1178   1.784       .  S
O1175      C1176   1.265       .  A
C1176      C1333   1.487       .  S
C1177      C1384   1.484       .  S
C1180      C1369   1.482       .  S
C1181      O1182   1.266       .  A
C1181      C1357   1.458       .  S
O1183      C1198   1.254       .  A
O1183     Al1191   1.869       .  S
C1184      O1194   1.261       .  A
C1184      O1185   1.268       .  A
C1184      C1273   1.460       .  S
O1185     Al1187   1.937       .  S
O1186      C1188   1.258       .  A
O1186     Al1187   1.883       .  S
Al1187     O1195   1.899   1_655  S
Al1187     O1196   1.792       .  S
C1188      O1201   1.263       .  A
C1188      C1252   1.493       .  S
O1189      C1199   1.254       .  A
O1190      C1203   1.260       .  A
O1190     Al1200   1.855       .  S
Al1191     O1204   1.936       .  S
O1192      C1199   1.258       .  A
O1193      C1202   1.258       .  A
O1193     Al1200   1.906       .  S
O1197      C1198   1.263       .  A
C1198      C1261   1.488       .  S
C1199      C1309   1.481       .  S
C1202      C1300   1.482       .  S
C1203      O1204   1.268       .  A
C1203      C1285   1.458       .  S
O1205      C1220   1.256       .  A
O1205     Al1213   1.887       .  S
C1206      O1216   1.259       .  A
C1206      O1207   1.266       .  A
C1206      C1360   1.459       .  S
O1207     Al1209   1.931       .  S
O1208      C1210   1.256       .  A
O1208     Al1209   1.872       .  S
Al1209     O1217   1.899       .  S
C1210      O1223   1.266       .  A
C1210      C1336   1.496       .  S
O1211     Al1213   1.903   1_455  S
O1212      C1225   1.260       .  A
O1212     Al1222   1.858       .  S
Al1213     O1226   1.937       .  S
Al1213     O1218   1.792       .  S
O1214      C1221   1.259       .  A
O1215      C1224   1.260       .  A
O1215     Al1222   1.905       .  S
O1218     Al1222   1.780       .  S
O1219      C1220   1.262       .  A
C1220      C1321   1.475       .  S
C1221      C1297   1.481       .  S
C1224      C1312   1.485       .  S
C1225      O1226   1.266       .  A
C1225      C1348   1.461       .  S
O1227      C1242   1.256       .  A
O1227     Al1235   1.879       .  S
C1228      O1238   1.260       .  A
C1228      O1229   1.269       .  A
C1228      C1288   1.464       .  S
O1229     Al1231   1.940       .  S
O1230      C1232   1.256       .  A
O1230     Al1231   1.878       .  S
Al1231     O1239   1.893       .  S
Al1231     O1241   1.923       .  S
Al1231     O1240   1.790       .  S
C1232      O1245   1.262       .  A
C1232      C1264   1.494       .  S
O1233      C1243   1.256       .  A
O1233     Al1235   1.897       .  S
O1234      C1247   1.260       .  A
O1234     Al1244   1.855       .  S
Al1235     O1248   1.937       .  S
Al1235     O1245   1.924       .  S
Al1235     O1240   1.796       .  S
O1236      C1243   1.258       .  A
O1236     Al1244   1.904       .  S
O1237      C1246   1.258       .  A
O1237     Al1244   1.906       .  S
O1238     Al1244   1.855       .  S
O1239      C1246   1.254       .  A
O1240     Al1244   1.786       .  S
O1241      C1242   1.263       .  A
C1242      C1249   1.484       .  S
C1243      C1372   1.482       .  S
C1246      C1381   1.483       .  S
C1247      O1248   1.267       .  A
C1247      C1276   1.457       .  S
C1249      C1250   1.406       .  A
C1249      C1254   1.408       .  A
C1250      C1251   1.407       .  A
C1250      H1255   1.084       .  S
C1251      C1252   1.414       .  A
C1251      O1256   1.371       .  S
C1252      C1253   1.409       .  A
C1253      C1254   1.399       .  A
C1253      H1257   1.083       .  S
C1254      O1258   1.372       .  S
O1256      H1260   0.992       .  S
O1258      H1259   0.992       .  S
C1261      C1262   1.408       .  A
C1261      C1266   1.411       .  A
C1262      C1263   1.409       .  A
C1262      H1267   1.083       .  S
C1263      C1264   1.415       .  A
C1263      O1268   1.371       .  S
C1264      C1265   1.406       .  A
C1265      C1266   1.395       .  A
C1265      H1269   1.083       .  S
C1266      O1270   1.372       .  S
O1268      H1272   0.992       .  S
O1270      H1271   0.992       .  S
C1273      C1274   1.398       .  A
C1273      C1278   1.409   1_556  A
C1274      C1275   1.397       .  A
C1274      H1279   1.084       .  S
C1275      O1280   1.373       .  S
C1276      C1277   1.397       .  A
C1277      H1281   1.084       .  S
C1278      O1282   1.373       .  S
O1280      H1284   0.992       .  S
C1285      C1286   1.403   1_556  A
C1285      C1290   1.402       .  A
C1286      H1291   1.084       .  S
C1287      C1288   1.403       .  A
C1287      O1292   1.371       .  S
C1289      C1290   1.395       .  A
C1289      H1293   1.084       .  S
C1290      O1294   1.372       .  S
O1292      H1296   0.992       .  S
O1294      H1295   0.991       .  S
C1297      C1298   1.404       .  A
C1298      C1531   1.399       .  A
C1298      H1303   1.084       .  S
C1299      C1530   1.399   1_545  A
C1299      C1300   1.412   1_554  A
C1301      C1302   1.400       .  A
C1301      H1305   1.084       .  S
C1302      O1306   1.373       .  S
O1304      H1308   0.992       .  S
O1306      H1307   0.992       .  S
C1309      C1310   1.405   1_556  A
C1310      H1315   1.084       .  S
C1311      C1312   1.412       .  A
C1311      O1316   1.372       .  S
C1313      C1314   1.398       .  A
C1313      H1317   1.084       .  S
C1314      O1318   1.371       .  S
O1316      H1320   0.992       .  S
O1318      H1319   0.991       .  S
C1321      C1322   1.400       .  A
C1321      C1326   1.411       .  A
C1322      C1323   1.404       .  A
C1322      H1327   1.083       .  S
C1323      C1324   1.411       .  A
C1323      O1328   1.372       .  S
C1324      C1325   1.400       .  A
C1325      C1326   1.403       .  A
C1325      H1329   1.084       .  S
C1326      O1330   1.372       .  S
O1328      H1332   0.992       .  S
O1330      H1331   0.992       .  S
C1333      C1334   1.407       .  A
C1333      C1338   1.408       .  A
C1334      C1335   1.411       .  A
C1334      H1339   1.084       .  S
C1335      C1336   1.415       .  A
C1335      O1340   1.371       .  S
C1336      C1337   1.408       .  A
C1337      C1338   1.396       .  A
C1337      H1341   1.083       .  S
C1338      O1342   1.372       .  S
O1340      H1344   0.992       .  S
O1342      H1343   0.992       .  S
C1345      C1346   1.404   1_556  A
C1345      C1350   1.401       .  A
C1346      H1351   1.084       .  S
C1347      C1348   1.401       .  A
C1347      O1352   1.376       .  S
C1349      C1350   1.397       .  A
C1349      H1353   1.084       .  S
C1350      O1354   1.373       .  S
O1352      H1356   0.991       .  S
O1354      H1355   0.991       .  S
C1357      C1358   1.398       .  A
C1357      C1362   1.408   1_556  A
C1358      C1359   1.395       .  A
C1358      H1363   1.084       .  S
C1359      O1364   1.372       .  S
C1360      C1361   1.398       .  A
C1361      H1365   1.084       .  S
C1362      O1366   1.373       .  S
O1364      H1368   0.992       .  S
C1369      C1370   1.406   1_556  A
C1369      C1838   1.410       .  A
C1371      C1836   1.411       .  A
C1371      O1376   1.371       .  S
C1372      C1835   1.411       .  A
C1373      C1374   1.398   1_545  A
C1373      H1377   1.084       .  S
C1374      C1833   1.410       .  A
C1374      O1378   1.371       .  S
O1376      H1380   0.992       .  S
O1378      H1379   0.992       .  S
C1381      C1386   1.412       .  A
C1382      C1383   1.399       .  A
C1382      H1387   1.084       .  S
C1383      C1384   1.412       .  A
C1383      O1388   1.371       .  S
C1384      C1385   1.405   1_556  A
C1386      O1390   1.371       .  S
O1388      H1392   0.992       .  S
O1390      H1391   0.992       .  S
O1393      C1408   1.255       .  A
O1393     Al1401   1.872       .  S
C1394      O1404   1.260       .  A
C1394      O1395   1.266       .  A
C1394      C1577   1.461       .  S
O1395     Al1397   1.933       .  S
O1396      C1398   1.257       .  A
O1396     Al1397   1.891       .  S
Al1397     O1405   1.899       .  S
Al1397     O1407   1.935       .  S
Al1397     O1406   1.791       .  S
C1398      O1411   1.261       .  A
C1398      C1556   1.475       .  S
O1399      C1409   1.256       .  A
O1399     Al1401   1.894       .  S
O1400      C1413   1.259       .  A
O1400     Al1410   1.858       .  S
Al1401     O1414   1.931       .  S
Al1401     O1411   1.921       .  S
Al1401     O1406   1.793       .  S
O1402      C1409   1.260       .  A
O1402     Al1410   1.910       .  S
O1403      C1412   1.259       .  A
O1403     Al1410   1.904       .  S
O1404     Al1410   1.862       .  S
O1405      C1412   1.258       .  A
O1406     Al1410   1.784       .  S
O1407      C1408   1.265       .  A
C1408      C1565   1.487       .  S
C1409      C1616   1.484       .  S
C1412      C1601   1.482       .  S
C1413      O1414   1.266       .  A
C1413      C1589   1.458       .  S
O1415      C1430   1.254       .  A
O1415     Al1423   1.869       .  S
C1416      O1426   1.261       .  A
C1416      O1417   1.268       .  A
C1416      C1505   1.460       .  S
O1417     Al1419   1.937       .  S
O1418      C1420   1.258       .  A
O1418     Al1419   1.883       .  S
Al1419     O1427   1.899   1_655  S
Al1419     O1428   1.792       .  S
C1420      O1433   1.263       .  A
C1420      C1484   1.493       .  S
O1421      C1431   1.254       .  A
O1422      C1435   1.260       .  A
O1422     Al1432   1.855       .  S
Al1423     O1436   1.936       .  S
O1424      C1431   1.258       .  A
O1425      C1434   1.258       .  A
O1425     Al1432   1.906       .  S
O1429      C1430   1.263       .  A
C1430      C1493   1.488       .  S
C1431      C1541   1.481       .  S
C1434      C1532   1.482       .  S
C1435      O1436   1.268       .  A
C1435      C1517   1.458       .  S
O1437      C1452   1.256       .  A
O1437     Al1445   1.887       .  S
C1438      O1448   1.259       .  A
C1438      O1439   1.266       .  A
C1438      C1592   1.459       .  S
O1439     Al1441   1.931       .  S
O1440      C1442   1.256       .  A
O1440     Al1441   1.872       .  S
Al1441     O1449   1.899       .  S
C1442      O1455   1.266       .  A
C1442      C1568   1.496       .  S
O1443     Al1445   1.903   1_455  S
O1444      C1457   1.260       .  A
O1444     Al1454   1.858       .  S
Al1445     O1458   1.937       .  S
Al1445     O1450   1.792       .  S
O1446      C1453   1.259       .  A
O1447      C1456   1.260   1_556  A
O1447     Al1454   1.905   1_556  S
O1450     Al1454   1.780       .  S
O1451      C1452   1.262       .  A
C1452      C1553   1.475       .  S
C1453      C1529   1.481       .  S
C1456      C1544   1.485       .  S
C1457      O1458   1.266       .  A
C1457      C1580   1.461       .  S
O1459      C1474   1.256       .  A
O1459     Al1467   1.879       .  S
C1460      O1470   1.260       .  A
C1460      O1461   1.269       .  A
C1460      C1520   1.464   1_554  S
O1461     Al1463   1.940       .  S
O1462      C1464   1.256       .  A
O1462     Al1463   1.878       .  S
Al1463     O1471   1.893       .  S
Al1463     O1473   1.923       .  S
Al1463     O1472   1.790       .  S
C1464      O1477   1.262       .  A
C1464      C1496   1.494       .  S
O1465      C1475   1.256       .  A
O1465     Al1467   1.897       .  S
O1466      C1479   1.260       .  A
O1466     Al1476   1.855       .  S
Al1467     O1480   1.937       .  S
Al1467     O1477   1.924       .  S
Al1467     O1472   1.796       .  S
O1468      C1475   1.258   1_556  A
O1468     Al1476   1.904   1_556  S
O1469      C1478   1.258   1_556  A
O1469     Al1476   1.906   1_556  S
O1470     Al1476   1.855       .  S
O1471      C1478   1.254       .  A
O1472     Al1476   1.786       .  S
O1473      C1474   1.263       .  A
C1474      C1481   1.484       .  S
C1475      C1604   1.482       .  S
C1478      C1613   1.483       .  S
C1479      O1480   1.267       .  A
C1479      C1508   1.457       .  S
C1481      C1482   1.406       .  A
C1481      C1486   1.408       .  A
C1482      C1483   1.407       .  A
C1482      H1487   1.084       .  S
C1483      C1484   1.414       .  A
C1483      O1488   1.371       .  S
C1484      C1485   1.409       .  A
C1485      C1486   1.399       .  A
C1485      H1489   1.083       .  S
C1486      O1490   1.372       .  S
O1488      H1492   0.992       .  S
O1490      H1491   0.992       .  S
C1493      C1494   1.408       .  A
C1493      C1498   1.411       .  A
C1494      C1495   1.409       .  A
C1494      H1499   1.083       .  S
C1495      C1496   1.415       .  A
C1495      O1500   1.371       .  S
C1496      C1497   1.406       .  A
C1497      C1498   1.395       .  A
C1497      H1501   1.083       .  S
C1498      O1502   1.372       .  S
O1500      H1504   0.992       .  S
O1502      H1503   0.992       .  S
C1505      C1506   1.398       .  A
C1505      C1510   1.409       .  A
C1506      C1507   1.397       .  A
C1506      H1511   1.084       .  S
C1507      C1740   1.408       .  A
C1507      O1512   1.373       .  S
C1508      C1739   1.408   1_554  A
C1508      C1509   1.397       .  A
C1509      C1742   1.396       .  A
C1509      H1513   1.084       .  S
C1510      C1741   1.396       .  A
C1510      O1514   1.373       .  S
O1512      H1516   0.992       .  S
O1514      H1747   0.992       .  S
H1515      O1746   0.992       .  S
C1517      C1518   1.403       .  A
C1517      C1522   1.402       .  A
C1518      C1751   1.396       .  A
C1518      H1523   1.084       .  S
C1519      C1750   1.396       .  A
C1519      C1520   1.403   1_554  A
C1519      O1524   1.371       .  S
C1520      C1753   1.405       .  A
C1521      C1752   1.405       .  A
C1521      C1522   1.395       .  A
C1521      H1525   1.084       .  S
C1522      O1526   1.372       .  S
O1524      H1528   0.992       .  S
O1526      H1527   0.991       .  S
C1529      C1530   1.404       .  A
C1530      H1535   1.084       .  S
C1531      C1532   1.412       .  A
C1531      O1768   1.371       .  S
C1533      C1534   1.400   1_545  A
C1533      H1537   1.084       .  S
C1534      O1538   1.373       .  S
O1536      C1763   1.371       .  S
O1536      H1540   0.992       .  S
O1538      H1539   0.992       .  S
C1541      C1542   1.405       .  A
C1542      C1775   1.401       .  A
C1542      H1547   1.084       .  S
C1543      C1774   1.401       .  A
C1543      C1544   1.412       .  A
C1543      O1548   1.372       .  S
C1545      C1546   1.398       .  A
C1545      H1549   1.084       .  S
C1546      O1550   1.371       .  S
O1548      H1552   0.992       .  S
O1550      H1551   0.991       .  S
C1553      C1554   1.400       .  A
C1553      C1558   1.411       .  A
C1554      C1555   1.404       .  A
C1554      H1559   1.083       .  S
C1555      C1556   1.411       .  A
C1555      O1560   1.372       .  S
C1556      C1557   1.400       .  A
C1557      C1558   1.403       .  A
C1557      H1561   1.084       .  S
C1558      O1562   1.372       .  S
O1560      H1564   0.992       .  S
O1562      H1563   0.992       .  S
C1565      C1566   1.407       .  A
C1565      C1570   1.408       .  A
C1566      C1567   1.411       .  A
C1566      H1571   1.084       .  S
C1567      C1568   1.415       .  A
C1567      O1572   1.371       .  S
C1568      C1569   1.408       .  A
C1569      C1570   1.396       .  A
C1569      H1573   1.083       .  S
C1570      O1574   1.372       .  S
O1572      H1576   0.992       .  S
O1574      H1575   0.992       .  S
C1577      C1578   1.404       .  A
C1577      C1582   1.401       .  A
C1578      C1811   1.400       .  A
C1578      H1583   1.084       .  S
C1579      C1810   1.400       .  A
C1579      C1580   1.401       .  A
C1579      O1584   1.376       .  S
C1580      C1813   1.404   1_554  A
C1581      C1812   1.404       .  A
C1581      C1582   1.397       .  A
C1581      H1585   1.084       .  S
C1582      O1586   1.373       .  S
O1584      H1588   0.991       .  S
O1586      H1587   0.991       .  S
C1589      C1590   1.398       .  A
C1589      C1594   1.408       .  A
C1590      C1591   1.395       .  A
C1590      H1595   1.084       .  S
C1591      C1824   1.409       .  A
C1591      O1596   1.372       .  S
C1592      C1823   1.409   1_554  A
C1592      C1593   1.398       .  A
C1593      C1826   1.397       .  A
C1593      H1597   1.084       .  S
C1594      C1825   1.397       .  A
C1594      O1598   1.373       .  S
O1596      H1600   0.992       .  S
O1598      H1831   0.992       .  S
H1599      O1830   0.992       .  S
C1601      C1602   1.406       .  A
C1602      C1835   1.399   1_565  A
C1602      H1839   1.084       .  S
C1603      C1834   1.399   1_545  A
C1603      O1608   1.371       .  S
C1604      C1837   1.406   1_554  A
C1605      C1836   1.406       .  A
C1605      C1606   1.398       .  A
C1605      H1609   1.084       .  S
C1606      O1610   1.371       .  S
H1607      C1834   1.084       .  S
O1608      H1612   0.992       .  S
O1610      H1611   0.992       .  S
C1613      C1846   1.405   1_554  A
C1613      C1618   1.412       .  A
C1614      C1845   1.405       .  A
C1614      C1615   1.399       .  A
C1614      H1619   1.084       .  S
C1615      C1616   1.412       .  A
C1615      O1620   1.371       .  S
C1616      C1617   1.405       .  A
C1617      C1850   1.399       .  A
C1617      H1853   1.084       .  S
C1618      C1849   1.399       .  A
C1618      O1622   1.371       .  S
O1620      H1624   0.992       .  S
H1621      C1849   1.084       .  S
O1622      H1623   0.992       .  S
O1625      C1640   1.255       .  A
O1625     Al1633   1.872       .  S
C1626      O1636   1.260       .  A
C1626      O1627   1.266       .  A
C1626      C1809   1.461       .  S
O1627     Al1629   1.933       .  S
O1628      C1630   1.257       .  A
O1628     Al1629   1.891       .  S
Al1629     O1637   1.899       .  S
Al1629     O1639   1.935       .  S
Al1629     O1638   1.791       .  S
C1630      O1643   1.261       .  A
C1630      C1788   1.475       .  S
O1631      C1641   1.256       .  A
O1631     Al1633   1.894       .  S
O1632      C1645   1.259       .  A
O1632     Al1642   1.858       .  S
Al1633     O1646   1.931       .  S
Al1633     O1643   1.921       .  S
Al1633     O1638   1.793       .  S
O1634      C1641   1.260       .  A
O1634     Al1642   1.910       .  S
O1635      C1644   1.259       .  A
O1635     Al1642   1.904       .  S
O1636     Al1642   1.862       .  S
O1637      C1644   1.258       .  A
O1638     Al1642   1.784       .  S
O1639      C1640   1.265       .  A
C1640      C1797   1.487       .  S
C1641      C1848   1.484       .  S
C1644      C1833   1.482       .  S
C1645      O1646   1.266       .  A
C1645      C1821   1.458       .  S
O1647      C1662   1.254       .  A
O1647     Al1655   1.869       .  S
C1648      O1658   1.261       .  A
C1648      O1649   1.268       .  A
C1648      C1737   1.460       .  S
O1649     Al1651   1.937       .  S
O1650      C1652   1.258       .  A
O1650     Al1651   1.883       .  S
Al1651     O1659   1.899   1_655  S
Al1651     O1660   1.792       .  S
C1652      O1665   1.263       .  A
C1652      C1716   1.493       .  S
O1653      C1663   1.254       .  A
O1654      C1667   1.260       .  A
O1654     Al1664   1.855       .  S
Al1655     O1668   1.936       .  S
O1656      C1663   1.258       .  A
O1657      C1666   1.258       .  A
O1657     Al1664   1.906       .  S
O1661      C1662   1.263       .  A
C1662      C1725   1.488       .  S
C1663      C1773   1.481       .  S
C1666      C1764   1.482       .  S
C1667      O1668   1.268       .  A
C1667      C1749   1.458       .  S
O1669      C1684   1.256       .  A
O1669     Al1677   1.887       .  S
C1670      O1680   1.259       .  A
C1670      O1671   1.266       .  A
C1670      C1824   1.459       .  S
O1671     Al1673   1.931       .  S
O1672      C1674   1.256       .  A
O1672     Al1673   1.872       .  S
Al1673     O1681   1.899       .  S
C1674      O1687   1.266       .  A
C1674      C1800   1.496       .  S
O1675     Al1677   1.903   1_455  S
O1676      C1689   1.260       .  A
O1676     Al1686   1.858       .  S
Al1677     O1690   1.937       .  S
Al1677     O1682   1.792       .  S
O1678      C1685   1.259       .  A
O1679      C1688   1.260       .  A
O1679     Al1686   1.905       .  S
O1682     Al1686   1.780       .  S
O1683      C1684   1.262       .  A
C1684      C1785   1.475       .  S
C1685      C1761   1.481       .  S
C1688      C1776   1.485       .  S
C1689      O1690   1.266       .  A
C1689      C1812   1.461       .  S
O1691      C1706   1.256       .  A
O1691     Al1699   1.879       .  S
C1692      O1702   1.260       .  A
C1692      O1693   1.269       .  A
C1692      C1752   1.464       .  S
O1693     Al1695   1.940       .  S
O1694      C1696   1.256       .  A
O1694     Al1695   1.878       .  S
Al1695     O1703   1.893       .  S
Al1695     O1705   1.923       .  S
Al1695     O1704   1.790       .  S
C1696      O1709   1.262       .  A
C1696      C1728   1.494       .  S
O1697      C1707   1.256       .  A
O1697     Al1699   1.897       .  S
O1698      C1711   1.260       .  A
O1698     Al1708   1.855       .  S
Al1699     O1712   1.937       .  S
Al1699     O1709   1.924       .  S
Al1699     O1704   1.796       .  S
O1700      C1707   1.258       .  A
O1700     Al1708   1.904       .  S
O1701      C1710   1.258       .  A
O1701     Al1708   1.906       .  S
O1702     Al1708   1.855       .  S
O1703      C1710   1.254       .  A
O1704     Al1708   1.786       .  S
O1705      C1706   1.263       .  A
C1706      C1713   1.484       .  S
C1707      C1836   1.482       .  S
C1710      C1845   1.483       .  S
C1711      O1712   1.267       .  A
C1711      C1740   1.457       .  S
C1713      C1714   1.406       .  A
C1713      C1718   1.408       .  A
C1714      C1715   1.407       .  A
C1714      H1719   1.084       .  S
C1715      C1716   1.414       .  A
C1715      O1720   1.371       .  S
C1716      C1717   1.409       .  A
C1717      C1718   1.399       .  A
C1717      H1721   1.083       .  S
C1718      O1722   1.372       .  S
O1720      H1724   0.992       .  S
O1722      H1723   0.992       .  S
C1725      C1726   1.408       .  A
C1725      C1730   1.411       .  A
C1726      C1727   1.409       .  A
C1726      H1731   1.083       .  S
C1727      C1728   1.415       .  A
C1727      O1732   1.371       .  S
C1728      C1729   1.406       .  A
C1729      C1730   1.395       .  A
C1729      H1733   1.083       .  S
C1730      O1734   1.372       .  S
O1732      H1736   0.992       .  S
O1734      H1735   0.992       .  S
C1737      C1738   1.398       .  A
C1737      C1742   1.409   1_556  A
C1738      C1739   1.397       .  A
C1738      H1743   1.084       .  S
C1739      O1744   1.373       .  S
C1740      C1741   1.397       .  A
C1741      H1745   1.084       .  S
C1742      O1746   1.373       .  S
O1744      H1748   0.992       .  S
C1749      C1750   1.403   1_556  A
C1749      C1754   1.402       .  A
C1750      H1755   1.084       .  S
C1751      C1752   1.403       .  A
C1751      O1756   1.371       .  S
C1753      C1754   1.395       .  A
C1753      H1757   1.084       .  S
C1754      O1758   1.372       .  S
O1756      H1760   0.992       .  S
O1758      H1759   0.991       .  S
C1761      C1762   1.404       .  A
C1762      H1767   1.084       .  S
C1763      C1764   1.412   1_554  A
C1765      C1766   1.400   1_545  A
C1765      H1769   1.084       .  S
C1766      O1770   1.373       .  S
O1768      H1772   0.992       .  S
O1770      H1771   0.992       .  S
C1773      C1774   1.405   1_556  A
C1774      H1779   1.084       .  S
C1775      C1776   1.412       .  A
C1775      O1780   1.372       .  S
C1777      C1778   1.398       .  A
C1777      H1781   1.084       .  S
C1778      O1782   1.371       .  S
O1780      H1784   0.992       .  S
O1782      H1783   0.991       .  S
C1785      C1786   1.400       .  A
C1785      C1790   1.411       .  A
C1786      C1787   1.404       .  A
C1786      H1791   1.083       .  S
C1787      C1788   1.411       .  A
C1787      O1792   1.372       .  S
C1788      C1789   1.400       .  A
C1789      C1790   1.403       .  A
C1789      H1793   1.084       .  S
C1790      O1794   1.372       .  S
O1792      H1796   0.992       .  S
O1794      H1795   0.992       .  S
C1797      C1798   1.407       .  A
C1797      C1802   1.408       .  A
C1798      C1799   1.411       .  A
C1798      H1803   1.084       .  S
C1799      C1800   1.415       .  A
C1799      O1804   1.371       .  S
C1800      C1801   1.408       .  A
C1801      C1802   1.396       .  A
C1801      H1805   1.083       .  S
C1802      O1806   1.372       .  S
O1804      H1808   0.992       .  S
O1806      H1807   0.992       .  S
C1809      C1810   1.404   1_556  A
C1809      C1814   1.401       .  A
C1810      H1815   1.084       .  S
C1811      C1812   1.401       .  A
C1811      O1816   1.376       .  S
C1813      C1814   1.397       .  A
C1813      H1817   1.084       .  S
C1814      O1818   1.373       .  S
O1816      H1820   0.991       .  S
O1818      H1819   0.991       .  S
C1821      C1822   1.398       .  A
C1821      C1826   1.408   1_556  A
C1822      C1823   1.395       .  A
C1822      H1827   1.084       .  S
C1823      O1828   1.372       .  S
C1824      C1825   1.398       .  A
C1825      H1829   1.084       .  S
C1826      O1830   1.373       .  S
O1828      H1832   0.992       .  S
C1833      C1834   1.406   1_556  A
C1835      O1840   1.371       .  S
C1837      C1838   1.398       .  A
C1837      H1841   1.084       .  S
C1838      O1842   1.371       .  S
O1840      H1844   0.992       .  S
O1842      H1843   0.992       .  S
C1845      C1850   1.412       .  A
C1846      C1847   1.399       .  A
C1846      H1851   1.084       .  S
C1847      C1848   1.412       .  A
C1847      O1852   1.371       .  S
C1848      C1849   1.405   1_556  A
C1850      O1854   1.371       .  S
O1852      H1856   0.992       .  S
O1854      H1855   0.992       .  S
