geometry optimzed in LAMMPS
_audit_creation_date              2020-12-01 
_audit_creation_method            'lammps2cif' 
_symmetry_space_group_name_H-M    'P1' 
_symmetry_Int_Tables_number       1 
_symmetry_cell_setting            triclinic 
loop_ 
_symmetry_equiv_pos_as_xyz 
  x,y,z 
_cell_length_a                    34.66881207 
_cell_length_b                    34.63209404011847 
_cell_length_c                    34.56974234217916 
_cell_angle_alpha                 89.97728861849872 
_cell_angle_beta                  89.92982943265173 
_cell_angle_gamma                 89.86492454807592 
loop_ 
_atom_site_label 
_atom_site_type_symbol 
_atom_site_fract_x 
_atom_site_fract_y 
_atom_site_fract_z 
_atom_site_charge 
O1          O  0.23631062  0.04239161  0.51505894    -0.82300
C2          C  0.16465359  0.02231983  0.36979055     0.97100
O3          O  0.14874072  0.02147453  0.40256153    -0.71400
O4          O  0.17861052  0.97050168  0.44796233    -0.75000
Al5        Al  0.16756371  0.02361417  0.45385751     1.49000
C6          C  0.20290330  0.95260933  0.46815177     0.92400
O7          O  0.27608167  0.99430314  0.42374446    -0.81200
O8          O  0.25003914  0.10550750  0.43400584    -0.74700
Al9        Al  0.25460603  0.01873991  0.46843880     1.90100
O10         O  0.26967873  0.04526896  0.38604596    -0.73800
O11         O  0.17788230  0.10040282  0.40943099    -0.73700
O12         O  0.19746621  0.03730878  0.36523899    -0.79300
O13         O  0.15090246  0.07516671  0.46084977    -0.77500
O14         O  0.21498232  0.03736713  0.44127950    -1.13700
O15         O  0.17634840  0.02277090  0.50838503    -0.72800
C16         C  0.20273524  0.03773377  0.52854004     0.97900
C17         C  0.28460556  0.01269248  0.39324025     0.94300
Al18       Al  0.22317406  0.06957915  0.40195174     1.55600
O19         O  0.23161363  0.97004487  0.48203345    -0.77500
C20         C  0.15340737  0.10202471  0.43642007     0.98400
C21         C  0.28008778  0.09709006  0.45290479     0.93300
O22         O  0.28710698  0.06253117  0.46200011    -0.82800
O23         O  0.95201279  0.02251011  0.24459037    -0.82300
C24         C  0.96627073  0.87858411  0.32128752     0.97100
O25         O  0.96471358  0.91147997  0.33692748    -0.71400
O26         O  0.01787699  0.95542762  0.30878031    -0.75000
Al27       Al  0.96468656  0.96250465  0.31606244     1.49000
C28         C  0.03832063  0.97319386  0.28455749     0.92400
O29         O  0.99945035  0.92938267  0.20907142    -0.81200
O30         O  0.88776083  0.94064350  0.23137104    -0.74700
Al31       Al  0.97489567  0.97469294  0.22873053     1.90100
O32         O  0.94810204  0.89256569  0.21387966    -0.73800
O33         O  0.89040807  0.91680686  0.30384131    -0.73700
O34         O  0.95473504  0.87350125  0.28706252    -0.79300
O35         O  0.91218740  0.97083328  0.32834478    -0.77500
O36         O  0.95413115  0.94875877  0.26815088    -1.13700
O37         O  0.96745692  0.01656645  0.30590439    -0.72800
C38         C  0.95600290  0.03690088  0.27786350     0.97900
C39         C  0.98121073  0.89915108  0.20015074     0.94300
Al40       Al  0.92272277  0.90913137  0.25955598     1.55600
O41         O  0.02333461  0.98682621  0.25409650    -0.77500
C42         C  0.88662578  0.94514319  0.32644779     0.98400
C43         C  0.89648944  0.95999910  0.20165737     0.93300
O44         O  0.93126546  0.96877156  0.19477290    -0.82800
O45         O  0.97433203  0.27491947  0.40940525    -0.82300
C46         C  0.86598544  0.16317107  0.45468141     0.97100
O47         O  0.86208421  0.18484702  0.42535876    -0.71400
O48         O  0.86959572  0.25697553  0.44798391    -0.75000
Al49       Al  0.89347321  0.22826845  0.40827853     1.49000
C50         C  0.88431192  0.28540430  0.46518480     0.92400
O51         O  0.95475111  0.23787180  0.51036720    -0.81200
O52         O  0.99541307  0.17402488  0.42464435    -0.74700
Al53       Al  0.96276962  0.25462328  0.45843924     1.90100
O54         O  0.96556809  0.17658060  0.49823900    -0.73800
O55         O  0.92984958  0.14898962  0.39818131    -0.73700
O56         O  0.89835995  0.15906098  0.47056523    -0.79300
O57         O  0.91344105  0.20038976  0.36492189    -0.77500
O58         O  0.93409786  0.21724245  0.43801003    -1.13700
O59         O  0.91575534  0.27413701  0.38521079    -0.72800
C60         C  0.95022580  0.28615967  0.38457848     0.97900
C61         C  0.96347249  0.20437630  0.52174782     0.94300
Al62       Al  0.94617668  0.16859703  0.44712918     1.55600
O63         O  0.92052216  0.29008101  0.46587961    -0.77500
C64         C  0.92389378  0.16553539  0.36621827     0.98400
C65         C  0.02069061  0.19637127  0.43794670     0.93300
O66         O  0.01130876  0.22695825  0.45565158    -0.82800
O67         O  0.06833138  0.02089612  0.76463306    -0.82300
C68         C  0.01802176  0.12704601  0.65269989     0.97100
O69         O  0.04733808  0.13250158  0.67414274    -0.71400
O70         O  0.02790317  0.12454152  0.74753273    -0.75000
Al71       Al  0.06720070  0.10165047  0.71750924     1.49000
C72         C  0.01144391  0.10940230  0.77624469     0.92400
O73         O  0.96770040  0.03795824  0.72877811    -0.81200
O74         O  0.05479922  0.99984381  0.66423208    -0.74700
Al75       Al  0.01952519  0.03105125  0.74492807     1.90100
O76         O  0.97989552  0.02546774  0.66775388    -0.73800
O77         O  0.07651714  0.06690270  0.63744684    -0.73700
O78         O  0.00333867  0.09399721  0.64970621    -0.79300
O79         O  0.11023149  0.08301490  0.68842582    -0.77500
O80         O  0.03866737  0.06025979  0.70723497    -1.13700
O81         O  0.09236359  0.07943534  0.76287312    -0.72800
C82         C  0.09311660  0.04500147  0.77549891     0.97900
C83         C  0.95644429  0.02857214  0.69551525     0.94300
Al84       Al  0.02940999  0.04762090  0.65873293     1.55600
O85         O  0.01116804  0.07308945  0.78058943    -0.77500
C86         C  0.10848461  0.07387306  0.65322894     0.98400
C87         C  0.04343194  0.97382016  0.68698432     0.93300
O88         O  0.02424498  0.98230057  0.71711342    -0.82800
O89         O  0.71878793  0.92436882  0.50797146    -0.82300
C90         C  0.82976631  0.97660049  0.61346739     0.97100
O91         O  0.80951506  0.94651556  0.61879131    -0.71400
O92         O  0.73608268  0.96341975  0.61189803    -0.75000
Al93       Al  0.76722496  0.92554812  0.58816003     1.49000
C94         C  0.70719077  0.97992210  0.59729144     0.92400
O95         O  0.75306534  0.02637549  0.52479283    -0.81200
O96         O  0.81887406  0.94080274  0.48570029    -0.74700
Al97       Al  0.73782143  0.97379533  0.51828508     1.90100
O98         O  0.81395090  0.01529583  0.51164123    -0.73800
O99         O  0.84713672  0.91882925  0.55219083    -0.73700
O100        O  0.83296556  0.99126794  0.58029101    -0.79300
O101        O  0.79768350  0.88355770  0.56918931    -0.77500
O102        O  0.77625649  0.95504390  0.54684685    -1.13700
O103        O  0.72301976  0.89912073  0.56608535    -0.72800
C104        C  0.71002201  0.89837738  0.53181488     0.97900
C105        C  0.78564161  0.03814377  0.51373155     0.94300
Al106      Al  0.82428662  0.96567060  0.53366895     1.55600
O107        O  0.70279346  0.98117921  0.56096668    -0.77500
C108        C  0.83261672  0.88635563  0.55964684     0.98400
C109        C  0.79555705  0.95220160  0.46020547     0.93300
O110        O  0.76492510  0.97009047  0.46927597    -0.82800
O111        O  0.97327807  0.75828518  0.53655833    -0.82300
C112        C  0.12056357  0.82644994  0.51972227     0.97100
O113        O  0.08847012  0.84370767  0.51989596    -0.71400
O114        O  0.04183709  0.81761986  0.46753238    -0.75000
Al115      Al  0.03651037  0.82615199  0.52120523     1.49000
C116        C  0.02136055  0.79460219  0.44835188     0.92400
O117        O  0.06424743  0.71762441  0.48770641    -0.81200
O118        O  0.05457934  0.74118540  0.60008130    -0.74700
Al119      Al  0.01990305  0.73960350  0.51286701     1.90100
O120        O  0.10143396  0.72064666  0.53913520    -0.73800
O121        O  0.08184772  0.81266287  0.59649961    -0.73700
O122        O  0.12386866  0.79242551  0.53217728    -0.79300
O123        O  0.02975901  0.84024529  0.57359717    -0.77500
O124        O  0.04787740  0.77782751  0.53282249    -1.13700
O125        O  0.98209082  0.81897154  0.51997895    -0.72800
C126        C  0.96069171  0.79237218  0.53260298     0.97900
C127        C  0.09441891  0.70750452  0.50573426     0.94300
Al128      Al  0.08711600  0.76744558  0.56445917     1.55600
O129        O  0.00732969  0.76497476  0.46441706    -0.77500
C130        C  0.05511501  0.83730221  0.59942166     0.98400
C131        C  0.03462262  0.71200431  0.59139252     0.93300
O132        O  0.02529980  0.70566271  0.55658333    -0.82800
O133        O  0.51481274  0.23855151  0.03010339    -0.82300
C134        C  0.36692192  0.17061429  0.01930939     0.97100
O135        O  0.39875758  0.15311147  0.02102688    -0.71400
O136        O  0.44230339  0.17903306  0.96575299    -0.75000
Al137      Al  0.45029691  0.17124671  0.01918623     1.49000
C138        C  0.46165599  0.20215490  0.94538789     0.92400
O139        O  0.42191508  0.28048273  0.98597548    -0.81200
O140        O  0.43407547  0.25692664  0.09719773    -0.74700
Al141      Al  0.46686291  0.25765960  0.00904726     1.90100
O142        O  0.38563823  0.27688946  0.03789806    -0.73800
O143        O  0.40720284  0.18567512  0.09503829    -0.73700
O144        O  0.36352061  0.20489771  0.03113318    -0.79300
O145        O  0.45949973  0.15861534  0.07169277    -0.77500
O146        O  0.43935076  0.21978689  0.03032212    -1.13700
O147        O  0.50426100  0.17815659  0.01433033    -0.72800
C148        C  0.52701742  0.20456458  0.02449173     0.97900
C149        C  0.39211033  0.29049523  0.00465396     0.94300
Al150      Al  0.40079472  0.23035862  0.06276000     1.55600
O151        O  0.47618190  0.23208583  0.96032369    -0.77500
C152        C  0.43474088  0.16198229  0.09820366     0.98400
C153        C  0.45515906  0.28517410  0.08793382     0.93300
O154        O  0.46406540  0.29113074  0.05296682    -0.82800
O155        O  0.25170232  0.95891582  0.01205076    -0.82300
C156        C  0.31861629  0.97068939  0.86253363     0.97100
O157        O  0.33549743  0.97262134  0.89469765    -0.71400
O158        O  0.30822204  0.02704544  0.93903947    -0.75000
Al159      Al  0.31801605  0.97365043  0.94661250     1.49000
C160        C  0.28538132  0.04591434  0.96024659     0.92400
O161        O  0.20910110  0.00452121  0.91999361    -0.81200
O162        O  0.23288343  0.89355201  0.93201291    -0.74700
Al163      Al  0.23184318  0.98097520  0.96466826     1.90100
O164        O  0.21343945  0.95301659  0.88289426    -0.73800
O165        O  0.30404220  0.89528741  0.90593150    -0.73700
O166        O  0.28501245  0.95734132  0.85979594    -0.79300
O167        O  0.33285665  0.92206357  0.95552420    -0.77500
O168        O  0.26988391  0.96067378  0.93640193    -1.13700
O169        O  0.31129119  0.97748981  0.00103036    -0.72800
C170        C  0.28562696  0.96541165  0.02393758     0.97900
C171        C  0.19970372  0.98619878  0.88975042     0.94300
Al172      Al  0.25956601  0.92748453  0.89836561     1.55600
O173        O  0.25653155  0.02952311  0.97526709    -0.77500
C174        C  0.32861599  0.89398451  0.93282484     0.98400
C175        C  0.20412951  0.90274051  0.95239358     0.93300
O176        O  0.19821289  0.93756293  0.96128978    -0.82800
O177        O  0.41901950  0.98322594  0.26889184    -0.82300
C178        C  0.46562114  0.87655117  0.15607926     0.97100
O179        O  0.43516321  0.87306267  0.17617215    -0.71400
O180        O  0.45326717  0.87850587  0.24990078    -0.75000
Al181      Al  0.41625350  0.90421196  0.21899674     1.49000
C182        C  0.47155596  0.89223358  0.27823917     0.92400
O183        O  0.51976778  0.96372908  0.23341993    -0.81200
O184        O  0.43683424  0.00564138  0.16733672    -0.74700
Al185      Al  0.46760219  0.97168658  0.24884208     1.90100
O186        O  0.50959521  0.97603957  0.17221622    -0.73800
O187        O  0.41168993  0.94082127  0.13933388    -0.73700
O188        O  0.48254011  0.90859272  0.15347622    -0.79300
O189        O  0.37498455  0.92580079  0.18859260    -0.77500
O190        O  0.44770920  0.94410877  0.21020971    -1.13700
O191        O  0.39148393  0.92654658  0.26378285    -0.72800
C192        C  0.39270158  0.96011797  0.27815202     0.97900
C193        C  0.53214080  0.97331949  0.20061534     0.94300
Al194      Al  0.45924616  0.95660544  0.16210227     1.55600
O195        O  0.47423416  0.92837733  0.28291303    -0.77500
C196        C  0.37862319  0.93630488  0.15380395     0.98400
C197        C  0.44735523  0.03072502  0.19142908     0.93300
O198        O  0.46474707  0.02119329  0.22225534    -0.82800
O199        O  0.76885082  0.07151937  0.00798654    -0.82300
C200        C  0.65722744  0.02605603  0.11720049     0.97100
O201        O  0.67764374  0.05629995  0.12015121    -0.71400
O202        O  0.75061516  0.03613724  0.11292962    -0.75000
Al203      Al  0.72033973  0.07414909  0.08814293     1.49000
C204        C  0.77849620  0.01761764  0.09847826     0.92400
O205        O  0.73096699  0.97067198  0.02657614    -0.81200
O206        O  0.66562627  0.05562941  0.98787892    -0.74700
Al207      Al  0.74756619  0.02282591  0.01934729     1.90100
O208        O  0.66977994  0.98266472  0.01667261    -0.73800
O209        O  0.64035572  0.08078411  0.05412566    -0.73700
O210        O  0.65375808  0.00909983  0.08518011    -0.79300
O211        O  0.69091916  0.11622157  0.06690234    -0.77500
O212        O  0.71007036  0.04318840  0.04817601    -1.13700
O213        O  0.76533383  0.09787491  0.06545504    -0.72800
C214        C  0.77937916  0.09702467  0.03168668     0.97900
C215        C  0.69755858  0.95930032  0.01803346     0.94300
Al216      Al  0.66145460  0.03288255  0.03701486     1.55600
O217        O  0.78236277  0.01481788  0.06210252    -0.77500
C218        C  0.65600189  0.11344843  0.05705946     0.98400
C219        C  0.68854987  0.04405196  0.96207321     0.93300
O220        O  0.71970272  0.02682702  0.97073180    -0.82800
O221        O  0.50734503  0.72074988  0.91785154    -0.82300
C222        C  0.61300213  0.83482589  0.96259950     0.97100
O223        O  0.61783103  0.81298459  0.93350256    -0.71400
O224        O  0.61075795  0.74125069  0.95625234    -0.75000
Al225      Al  0.58722678  0.76919477  0.91599981     1.49000
C226        C  0.59633642  0.71330723  0.97444048     0.92400
O227        O  0.52472175  0.76066594  0.01718296    -0.81200
O228        O  0.48466495  0.82183384  0.92903563    -0.74700
Al229      Al  0.51769322  0.74264319  0.96594962     1.90100
O230        O  0.51203696  0.82122338  0.00345029    -0.73800
O231        O  0.55074145  0.84813414  0.90415040    -0.73700
O232        O  0.58005299  0.83907784  0.97740202    -0.79300
O233        O  0.56804750  0.79645971  0.87193366    -0.77500
O234        O  0.54603318  0.78003944  0.94490286    -1.13700
O235        O  0.56558711  0.72301148  0.89315631    -0.72800
C236        C  0.53173901  0.70922272  0.89350328     0.97900
C237        C  0.51478840  0.79402508  0.02758706     0.94300
Al238      Al  0.53302531  0.82864868  0.95282485     1.55600
O239        O  0.56022710  0.70815189  0.97513281    -0.77500
C240        C  0.55815041  0.83147739  0.87256555     0.98400
C241        C  0.45943247  0.79929123  0.94226157     0.93300
O242        O  0.46880577  0.76948433  0.96131927    -0.82800
O243        O  0.53456973  0.97174496  0.74498683    -0.82300
C244        C  0.51457268  0.11589536  0.81995306     0.97100
O245        O  0.51424498  0.08295677  0.83546826    -0.71400
O246        O  0.46359966  0.03785433  0.80490450    -0.75000
Al247      Al  0.51664489  0.03200711  0.81537281     1.49000
C248        C  0.44531045  0.01896923  0.77987853     0.92400
O249        O  0.48654776  0.06465358  0.70720747    -0.81200
O250        O  0.59774729  0.05415042  0.73285725    -0.74700
Al251      Al  0.51127811  0.01926016  0.72767843     1.90100
O252        O  0.53714338  0.10209510  0.71425366    -0.73800
O253        O  0.59254339  0.07727529  0.80547986    -0.73700
O254        O  0.52904883  0.12099339  0.78690186    -0.79300
O255        O  0.56842170  0.02484654  0.83132789    -0.77500
O256        O  0.52991887  0.04553362  0.76793765    -1.13700
O257        O  0.51587240  0.97788967  0.80552734    -0.72800
C258        C  0.52945508  0.95762421  0.77838347     0.97900
C259        C  0.50410497  0.09592326  0.70011428     0.94300
Al260      Al  0.56160897  0.08525979  0.76037178     1.55600
O261        O  0.46246459  0.00556510  0.75061056    -0.77500
C262        C  0.59476562  0.04974179  0.82926342     0.98400
C263        C  0.58993754  0.03516888  0.70270539     0.93300
O264        O  0.55546609  0.02615394  0.69518051    -0.82800
O265        O  0.03754281  0.52531265  0.23353233    -0.82300
C266        C  0.02161217  0.37984517  0.16097544     0.97100
O267        O  0.02151429  0.41228455  0.14429306    -0.71400
O268        O  0.96970270  0.45873262  0.17170178    -0.75000
Al269      Al  0.02316802  0.46399751  0.16317712     1.49000
C270        C  0.95041774  0.47795437  0.19580196     0.92400
O271        O  0.99032022  0.43278773  0.27117280    -0.81200
O272        O  0.10206559  0.44436463  0.24747209    -0.74700
Al273      Al  0.01472505  0.47801939  0.25061667     1.90100
O274        O  0.04204597  0.39634222  0.26698112    -0.73800
O275        O  0.09853111  0.41840830  0.17533001    -0.73700
O276        O  0.03486566  0.37584149  0.19465861    -0.79300
O277        O  0.07538841  0.47082993  0.14864890    -0.77500
O278        O  0.03490088  0.45138763  0.21127169    -1.13700
O279        O  0.02218481  0.51826279  0.17215274    -0.72800
C280        C  0.03406696  0.53886975  0.19977923     0.97900
C281        C  0.00840203  0.40218333  0.27990329     0.94300
Al282      Al  0.06685054  0.41209132  0.22047248     1.55600
O283        O  0.96629473  0.49090613  0.22597024    -0.77500
C284        C  0.10123549  0.44538920  0.15099228     0.98400
C285        C  0.09330344  0.46362320  0.27727250     0.93300
O286        O  0.05846921  0.47217091  0.28416891    -0.82800
O287        O  0.01633651  0.25854662  0.95144030    -0.82300
C288        C  0.86890329  0.32861602  0.96664959     0.97100
O289        O  0.90142908  0.34459365  0.96699723    -0.71400
O290        O  0.94469992  0.31516684  0.02095944    -0.75000
Al291      Al  0.95246655  0.32541021  0.96765025     1.49000
C292        C  0.96519768  0.29157212  0.03964863     0.92400
O293        O  0.92442365  0.21518322  0.99714517    -0.81200
O294        O  0.93413140  0.24112663  0.88667340    -0.74700
Al295      Al  0.96895025  0.23865994  0.97369299     1.90100
O296        O  0.88609175  0.22222913  0.94688056    -0.73800
O297        O  0.91014253  0.31337196  0.89023663    -0.73700
O298        O  0.86485903  0.29489892  0.95354308    -0.79300
O299        O  0.96138080  0.34031850  0.91571906    -0.77500
O300        O  0.94100146  0.27747673  0.95442051    -1.13700
O301        O  0.00656814  0.31779557  0.97158459    -0.72800
C302        C  0.02878353  0.29224958  0.95818267     0.97900
C303        C  0.89395359  0.20647002  0.97890902     0.94300
Al304      Al  0.90206487  0.26853210  0.92198796     1.55600
O305        O  0.97981970  0.26255548  0.02293391    -0.77500
C306        C  0.93761694  0.33722197  0.88830577     0.98400
C307        C  0.95474830  0.21219538  0.89494346     0.93300
O308        O  0.96494353  0.20607751  0.92941534    -0.82800
O309        O  0.27091401  0.42634007  0.96864048    -0.82300
C310        C  0.15943487  0.47361698  0.86135375     0.97100
O311        O  0.17924407  0.44291208  0.85765166    -0.71400
O312        O  0.25258302  0.46027937  0.86405951    -0.75000
Al313      Al  0.22147597  0.42333744  0.88927174     1.49000
C314        C  0.28000189  0.47966879  0.87790182     0.92400
O315        O  0.23333424  0.52714488  0.95028657    -0.81200
O316        O  0.16819314  0.44211544  0.99000477    -0.74700
Al317      Al  0.24979487  0.47489601  0.95747044     1.90100
O318        O  0.17255764  0.51553954  0.96225340    -0.73800
O319        O  0.14125872  0.41834248  0.92376057    -0.73700
O320        O  0.15613263  0.48993424  0.89373175    -0.79300
O321        O  0.19105617  0.38193512  0.91043235    -0.77500
O322        O  0.21197329  0.45462180  0.92929160    -1.13700
O323        O  0.26580320  0.39819516  0.91209564    -0.72800
C324        C  0.27992960  0.39951876  0.94579721     0.97900
C325        C  0.20029159  0.53877327  0.95995886     0.94300
Al326      Al  0.16362022  0.46557372  0.94128504     1.55600
O327        O  0.28406812  0.48289698  0.91420532    -0.77500
C328        C  0.15616500  0.38533177  0.92027756     0.98400
C329        C  0.19149792  0.45320770  0.01560979     0.93300
O330        O  0.22240184  0.47074231  0.00662697    -0.82800
O331        O  0.01095032  0.77672770  0.06430351    -0.82300
C332        C  0.11600477  0.66305092  0.01698960     0.97100
O333        O  0.12105675  0.68470274  0.04615903    -0.71400
O334        O  0.11443007  0.75722474  0.02531932    -0.75000
Al335      Al  0.09071504  0.72831355  0.06481055     1.49000
C336        C  0.09992480  0.78606592  0.00861378     0.92400
O337        O  0.02817555  0.73932888  0.96370679    -0.81200
O338        O  0.98749404  0.67696711  0.05107018    -0.74700
Al339      Al  0.02120532  0.75633314  0.01561067     1.90100
O340        O  0.01510139  0.67868980  0.97664906    -0.73800
O341        O  0.05347298  0.64954386  0.07527766    -0.73700
O342        O  0.08302584  0.65930026  0.00221156    -0.79300
O343        O  0.07158524  0.70037215  0.10818238    -0.77500
O344        O  0.04942805  0.71832910  0.03575678    -1.13700
O345        O  0.06909429  0.77393687  0.08912395    -0.72800
C346        C  0.03488075  0.78691755  0.08960147     0.97900
C347        C  0.01771086  0.70623134  0.95289103     0.94300
Al348      Al  0.03598461  0.67002627  0.02703400     1.55600
O349        O  0.06377242  0.79096974  0.00763656    -0.77500
C350        C  0.06129109  0.66560020  0.10702006     0.98400
C351        C  0.96234212  0.69994536  0.03826585     0.93300
O352        O  0.97201212  0.72985284  0.01953776    -0.82800
O353        O  0.91932596  0.51486694  0.71432007    -0.82300
C354        C  0.96392547  0.62263716  0.82708865     0.97100
O355        O  0.93415708  0.62613900  0.80607963    -0.71400
O356        O  0.95562984  0.61995694  0.73321893    -0.75000
Al357      Al  0.91696105  0.59492244  0.76256864     1.49000
C358        C  0.97348797  0.60583966  0.70472047     0.92400
O359        O  0.01948039  0.53517731  0.74985647    -0.81200
O360        O  0.93669626  0.49294764  0.81563819    -0.74700
Al361      Al  0.96791434  0.52666854  0.73424950     1.90100
O362        O  0.00918527  0.52392791  0.81142388    -0.73800
O363        O  0.90933158  0.55755002  0.84184584    -0.73700
O364        O  0.98069971  0.59055674  0.83027891    -0.79300
O365        O  0.87467518  0.57389423  0.79136639    -0.77500
O366        O  0.94766142  0.55465384  0.77246592    -1.13700
O367        O  0.89358725  0.57267970  0.71674864    -0.72800
C368        C  0.89418809  0.53866529  0.70323390     0.97900
C369        C  0.03177778  0.52664026  0.78293386     0.94300
Al370      Al  0.95812925  0.54238395  0.82086015     1.55600
O371        O  0.97461442  0.56964868  0.69951888    -0.77500
C372        C  0.87691461  0.56294046  0.82611386     0.98400
C373        C  0.94877935  0.46778027  0.79237561     0.93300
O374        O  0.96583052  0.47736438  0.76138269    -0.82800
O375        O  0.74900553  0.54329070  0.96711730    -0.82300
C376        C  0.82180771  0.52943536  0.11386413     0.97100
O377        O  0.83764429  0.52968624  0.08108010    -0.71400
O378        O  0.80931582  0.47625596  0.03701216    -0.75000
Al379      Al  0.81793516  0.52953087  0.02995108     1.49000
C380        C  0.78565914  0.45665966  0.01760225     0.92400
O381        O  0.70948419  0.49721217  0.06048770    -0.81200
O382        O  0.73256994  0.60824761  0.05031177    -0.74700
Al383      Al  0.73108448  0.52114938  0.01529557     1.90100
O384        O  0.71531380  0.54775525  0.09843722    -0.73800
O385        O  0.80517784  0.60593891  0.07373611    -0.73700
O386        O  0.78796989  0.54201086  0.11839455    -0.79300
O387        O  0.83156877  0.58166441  0.02146763    -0.77500
O388        O  0.76996116  0.54143057  0.04239327    -1.13700
O389        O  0.80938165  0.52625700  0.97599399    -0.72800
C390        C  0.78259718  0.53728699  0.95398523     0.97900
C391        C  0.70088820  0.51504777  0.09131378     0.94300
Al392      Al  0.76088188  0.57340790  0.08185293     1.55600
O393        O  0.75583933  0.47240391  0.00367713    -0.77500
C394        C  0.82877231  0.60845723  0.04595388     0.98400
C395        C  0.70321190  0.59927626  0.03075110     0.93300
O396        O  0.69770484  0.56477564  0.02040118    -0.82800
O397        O  0.56924605  0.47841341  0.21693332    -0.82300
C398        C  0.52226893  0.36718665  0.32565414     0.97100
O399        O  0.55318179  0.36500185  0.30604030    -0.71400
O400        O  0.53340935  0.37280018  0.23285991    -0.75000
Al401      Al  0.57079851  0.39762170  0.26336332     1.49000
C402        C  0.51591763  0.38747019  0.20445965     0.92400
O403        O  0.46746896  0.45854955  0.24998282    -0.81200
O404        O  0.54818929  0.49744996  0.31959655    -0.74700
Al405      Al  0.51998117  0.46635192  0.23571790     1.90100
O406        O  0.47642003  0.46641165  0.31217008    -0.73800
O407        O  0.57519075  0.43163198  0.34359207    -0.73700
O408        O  0.50452743  0.39879565  0.32852753    -0.79300
O409        O  0.61172111  0.41945530  0.29318813    -0.77500
O410        O  0.53912691  0.43722937  0.27351306    -1.13700
O411        O  0.59495386  0.42062849  0.21823140    -0.72800
C412        C  0.59472248  0.45499845  0.20577638     0.97900
C413        C  0.45451983  0.46620875  0.28313499     0.94300
Al414      Al  0.52703350  0.44752586  0.32201283     1.55600
O415        O  0.51395469  0.42382105  0.20011113    -0.77500
C416        C  0.60809757  0.42967114  0.32801994     0.98400
C417        C  0.53760135  0.52335546  0.29635556     0.93300
O418        O  0.52207773  0.51478234  0.26429024    -0.82800
O419        O  0.47220522  0.74447617  0.45017440    -0.82300
C420        C  0.61621524  0.66998099  0.46502574     0.97100
O421        O  0.58360504  0.65398754  0.46510596    -0.71400
O422        O  0.54182185  0.68495212  0.51824726    -0.75000
Al423      Al  0.53284085  0.67445892  0.46570215     1.49000
C424        C  0.52382035  0.70973612  0.53781977     0.92400
O425        O  0.56629045  0.78236338  0.49402293    -0.81200
O426        O  0.55171134  0.75615598  0.38320315    -0.74700
Al427      Al  0.52034624  0.76183002  0.47152526     1.90100
O428        O  0.60217184  0.77566525  0.44195762    -0.73800
O429        O  0.57494674  0.68299552  0.38791849    -0.73700
O430        O  0.62092214  0.70290434  0.45026253    -0.79300
O431        O  0.52283359  0.65873524  0.41425134    -0.77500
O432        O  0.54584137  0.72169835  0.45174338    -1.13700
O433        O  0.47885387  0.68449828  0.46989574    -0.72800
C434        C  0.45829683  0.71125498  0.45608656     0.97900
C435        C  0.59673165  0.78995266  0.47526996     0.94300
Al436      Al  0.58426949  0.72893921  0.41835775     1.55600
O437        O  0.50912779  0.73888342  0.52142812    -0.77500
C438        C  0.54697442  0.65957767  0.38700209     0.98400
C439        C  0.53298448  0.78628644  0.39187924     0.93300
O440        O  0.52535267  0.79399967  0.42678992    -0.82800
O441        O  0.22035495  0.57454284  0.47150697    -0.82300
C442        C  0.33158587  0.52911754  0.36275903     0.97100
O443        O  0.31083834  0.55915698  0.35856703    -0.71400
O444        O  0.23818701  0.53946140  0.36642369    -0.75000
Al445      Al  0.26814341  0.57784828  0.39079096     1.49000
C446        C  0.21049251  0.52105022  0.38103793     0.92400
O447        O  0.25920158  0.47487901  0.45138537    -0.81200
O448        O  0.32212252  0.56135292  0.49202144    -0.74700
Al449      Al  0.24179137  0.52642829  0.45974853     1.90100
O450        O  0.31989452  0.48766823  0.46327742    -0.73800
O451        O  0.34818758  0.58646435  0.42585213    -0.73700
O452        O  0.33642818  0.51437136  0.39565575    -0.79300
O453        O  0.29715438  0.62048804  0.41085914    -0.77500
O454        O  0.27895285  0.54753226  0.43111758    -1.13700
O455        O  0.22300483  0.60180921  0.41427681    -0.72800
C456        C  0.20961059  0.60052507  0.44842958     0.97900
C457        C  0.29272534  0.46378789  0.45995912     0.94300
Al458      Al  0.32761885  0.53829766  0.44309943     1.55600
O459        O  0.20661898  0.51865779  0.41737930    -0.77500
C460        C  0.33212485  0.61868326  0.42060794     0.98400
C461        C  0.29979957  0.54838840  0.51764107     0.93300
O462        O  0.26955812  0.52992887  0.50859063    -0.82800
O463        O  0.45311492  0.47661702  0.72882570    -0.82300
C464        C  0.47523989  0.62516318  0.66335701     0.97100
O465        O  0.47710196  0.59300869  0.64647466    -0.71400
O466        O  0.52754643  0.54696847  0.67718952    -0.75000
Al467      Al  0.47489161  0.54120487  0.66363454     1.49000
C468        C  0.54428364  0.52492822  0.70081822     0.92400
O469        O  0.49958342  0.56597805  0.77384637    -0.81200
O470        O  0.38954872  0.55827385  0.74427086    -0.74700
Al471      Al  0.47580964  0.52262376  0.75007308     1.90100
O472        O  0.44956564  0.60508396  0.76752753    -0.73800
O473        O  0.39694048  0.58434710  0.67298825    -0.73700
O474        O  0.45924577  0.62838819  0.69593829    -0.79300
O475        O  0.42415281  0.53433817  0.64507328    -0.77500
O476        O  0.45892432  0.55166884  0.71096882    -1.13700
O477        O  0.47629982  0.48667705  0.67041956    -0.72800
C478        C  0.46156935  0.46443154  0.69533025     0.97900
C479        C  0.48165598  0.59654401  0.78275956     0.94300
Al480      Al  0.42644376  0.59078067  0.71953326     1.55600
O481        O  0.52551142  0.50971381  0.72815895    -0.77500
C482        C  0.39632810  0.55760667  0.64814981     0.98400
C483        C  0.39662651  0.53838838  0.77400783     0.93300
O484        O  0.43071047  0.52811591  0.78167063    -0.82800
O485        O  0.47412499  0.22083964  0.56893069    -0.82300
C486        C  0.37334795  0.33413017  0.51184546     0.97100
O487        O  0.36706092  0.31509503  0.54271086    -0.71400
O488        O  0.37209979  0.24112880  0.52696209    -0.75000
Al489      Al  0.39586274  0.27167156  0.56493327     1.49000
C490        C  0.38603891  0.21167012  0.51080433     0.92400
O491        O  0.46098232  0.25328008  0.46578824    -0.81200
O492        O  0.49942185  0.32047881  0.55032952    -0.74700
Al493      Al  0.46589592  0.23919840  0.51883700     1.90100
O494        O  0.47506883  0.31415165  0.47530592    -0.73800
O495        O  0.43350201  0.35014534  0.57010783    -0.73700
O496        O  0.40663630  0.33511184  0.49734914    -0.79300
O497        O  0.41565280  0.30188488  0.60681677    -0.77500
O498        O  0.43794879  0.27873193  0.53597001    -1.13700
O499        O  0.41547946  0.22657521  0.59233506    -0.72800
C500        C  0.44922844  0.21250523  0.59408882     0.97900
C501        C  0.47205820  0.28546531  0.45309803     0.94300
Al502      Al  0.45234367  0.32608644  0.52424581     1.55600
O503        O  0.42214854  0.20554509  0.51092674    -0.77500
C504        C  0.42752053  0.33606128  0.60318227     0.98400
C505        C  0.52495233  0.29687200  0.53981569     0.93300
O506        O  0.51583869  0.26546767  0.52314398    -0.82800
O507        O  0.73332720  0.45992643  0.46688290    -0.82300
C508        C  0.66791531  0.46961844  0.61685627     0.97100
O509        O  0.65018496  0.47081350  0.58509157    -0.71400
O510        O  0.67716831  0.52576873  0.54172140    -0.75000
Al511      Al  0.66729808  0.47283571  0.53292943     1.49000
C512        C  0.70001018  0.54552572  0.52145905     0.92400
O513        O  0.77668864  0.50286451  0.55899463    -0.81200
O514        O  0.75204125  0.39222251  0.54545534    -0.74700
Al515      Al  0.75343541  0.48052626  0.51433389     1.90100
O516        O  0.77330388  0.45049854  0.59491772    -0.73800
O517        O  0.68083209  0.39479938  0.57320950    -0.73700
O518        O  0.70183457  0.45669107  0.61893201    -0.79300
O519        O  0.65222769  0.42112052  0.52315642    -0.77500
O520        O  0.71560853  0.45975721  0.54244112    -1.13700
O521        O  0.67366381  0.47807459  0.47856284    -0.72800
C522        C  0.69940543  0.46675373  0.45530766     0.97900
C523        C  0.78700327  0.48368559  0.58834306     0.94300
Al524      Al  0.72623322  0.42620270  0.57998784     1.55600
O525        O  0.72871741  0.52967191  0.50541106    -0.77500
C526        C  0.65582078  0.39348985  0.54664483     0.98400
C527        C  0.78077166  0.40151286  0.52502446     0.93300
O528        O  0.78673953  0.43644346  0.51642196    -0.82800
C529        C  0.61243174  0.34630972  0.57916409    -0.21800
C530        C  0.62844407  0.36090684  0.54479200    -0.09800
C531        C  0.61426883  0.34766189  0.50909406     0.29100
C532        C  0.58322298  0.32193286  0.50796540    -0.21800
C533        C  0.56512769  0.31001158  0.54225341    -0.09800
C534        C  0.58046885  0.32168782  0.57795772     0.29100
F535        F  0.56265176  0.31174727  0.61149162    -0.20300
H536        H  0.62258347  0.35652421  0.60695681     0.17400
H537        H  0.57093324  0.31435805  0.48021025     0.17400
F538        F  0.62897462  0.36127808  0.47533606    -0.20300
C539        C  0.41783497  0.40806323  0.68447425    -0.21800
C540        C  0.45498612  0.42422555  0.68331064    -0.09800
C541        C  0.48398035  0.40574606  0.66170748     0.29100
C542        C  0.47510964  0.37409719  0.63868128    -0.21800
C543        C  0.43727408  0.36021834  0.63667949    -0.09800
C544        C  0.40889775  0.37606429  0.66108189     0.29100
F545        F  0.37196425  0.36332859  0.65926652    -0.20300
H546        H  0.39500398  0.42234963  0.70044254     0.17400
H547        H  0.49726299  0.36229306  0.61993673     0.17400
F548        F  0.52013241  0.42066670  0.65993600    -0.20300
C549        C  0.59370018  0.47340090  0.69439861    -0.21800
C550        C  0.58427985  0.51286451  0.69267618    -0.09800
C551        C  0.60989830  0.53842274  0.67443470     0.29100
C552        C  0.64124123  0.52407450  0.65350679    -0.21800
C553        C  0.64754096  0.48420412  0.65091958    -0.09800
C554        C  0.62504497  0.45899917  0.67324106     0.29100
F555        F  0.63040476  0.42024234  0.67069127    -0.20300
H556        H  0.57437399  0.45319486  0.70837770     0.17400
H557        H  0.65837289  0.54379426  0.63629522     0.17400
F558        F  0.60277217  0.57690443  0.67412356    -0.20300
C559        C  0.32752303  0.51649550  0.57456466    -0.21800
C560        C  0.31303530  0.55037034  0.55778244    -0.09800
C561        C  0.32124336  0.58617669  0.57483912     0.29100
C562        C  0.34617788  0.58819736  0.60655348    -0.21800
C563        C  0.36383342  0.55456976  0.62087820    -0.09800
C564        C  0.35305055  0.51849194  0.60571419     0.29100
F565        F  0.36881144  0.48535212  0.61960968    -0.20300
H566        H  0.32189675  0.48871724  0.56130496     0.17400
H567        H  0.35392893  0.61624903  0.61797170     0.17400
F568        F  0.30708278  0.61925546  0.55929044    -0.20300
C569        C  0.32910644  0.40548131  0.44326983    -0.21800
C570        C  0.30168464  0.42308608  0.46710478    -0.09800
C571        C  0.29185417  0.40577736  0.50251895     0.29100
C572        C  0.31269685  0.37361713  0.51579957    -0.21800
C573        C  0.34339983  0.35872605  0.49374754    -0.09800
C574        C  0.34950929  0.37331047  0.45611045     0.29100
F575        F  0.37768650  0.35882234  0.43297606    -0.20300
H576        H  0.33705693  0.41865232  0.41597351     0.17400
H577        H  0.30721673  0.36278830  0.54467852     0.17400
F578        F  0.26532961  0.42254618  0.52606454    -0.20300
C579        C  0.64297026  0.63711776  0.52180147    -0.21800
C580        C  0.64796777  0.64891536  0.48335088    -0.09800
C581        C  0.67753194  0.63248978  0.46106143     0.29100
C582        C  0.69847228  0.60107354  0.47568957    -0.21800
C583        C  0.68974172  0.58591028  0.51246796    -0.09800
C584        C  0.66387392  0.60602161  0.53649501     0.29100
F585        F  0.65605890  0.59336418  0.57283929    -0.20300
H586        H  0.62037660  0.64983655  0.53935743     0.17400
H587        H  0.71840756  0.58614249  0.45669517     0.17400
F588        F  0.68281010  0.64356023  0.42376945    -0.20300
C589        C  0.39367100  0.68823016  0.47510671    -0.21800
C590        C  0.41838125  0.70135323  0.44581487    -0.09800
C591        C  0.40931446  0.69328656  0.40702391     0.29100
C592        C  0.37802068  0.66922961  0.39810084    -0.21800
C593        C  0.35521261  0.65359674  0.42775671    -0.09800
C594        C  0.36217768  0.66473339  0.46616118     0.29100
F595        F  0.34095998  0.64952937  0.49536954    -0.20300
H596        H  0.40078839  0.69331479  0.50519425     0.17400
H597        H  0.37367858  0.66014404  0.36844558     0.17400
F598        F  0.43349788  0.70458854  0.37827984    -0.20300
C599        C  0.46866089  0.68767671  0.62839297    -0.21800
C600        C  0.49232851  0.65832792  0.64326234    -0.09800
C601        C  0.53025880  0.65467666  0.62960287     0.29100
C602        C  0.54250390  0.67619793  0.59794676    -0.21800
C603        C  0.51689426  0.70128111  0.57907614    -0.09800
C604        C  0.48096265  0.70938418  0.59637955     0.29100
F605        F  0.45585180  0.73428358  0.57945088    -0.20300
H606        H  0.43925212  0.69076020  0.63858287     0.17400
H607        H  0.57062443  0.67010602  0.58566574     0.17400
F608        F  0.55384320  0.62685541  0.64382979    -0.20300
C609        C  0.63962306  0.47917913  0.36716222    -0.21800
C610        C  0.64121004  0.44199918  0.35134531    -0.09800
C611        C  0.66935168  0.41585547  0.36448656     0.29100
C612        C  0.69261001  0.42565835  0.39629636    -0.21800
C613        C  0.68768936  0.46148641  0.41478714    -0.09800
C614        C  0.66271291  0.48899892  0.39846867     0.29100
F615        F  0.65777174  0.52409263  0.41534658    -0.20300
H616        H  0.61816457  0.49969098  0.35725178     0.17400
H617        H  0.71147025  0.40400738  0.40875188     0.17400
F618        F  0.67144548  0.37973361  0.34944141    -0.20300
C619        C  0.45547794  0.31106030  0.38928819    -0.21800
C620        C  0.48197052  0.29123710  0.41236381    -0.09800
C621        C  0.52068941  0.28873182  0.40052274     0.29100
C622        C  0.53351684  0.31014512  0.36856604    -0.21800
C623        C  0.50772893  0.33433184  0.34865196    -0.09800
C624        C  0.46813465  0.33240973  0.35757015     0.29100
F625        F  0.44215435  0.35421345  0.33796741    -0.20300
H626        H  0.42556644  0.31314373  0.39808368     0.17400
H627        H  0.56408274  0.31099623  0.36210480     0.17400
F628        F  0.54673223  0.26918307  0.42236197    -0.20300
C629        C  0.57795020  0.61348651  0.34099890    -0.21800
C630        C  0.54414579  0.63045925  0.35580740    -0.09800
C631        C  0.50814303  0.61526486  0.34481229     0.29100
C632        C  0.50625474  0.58231706  0.32146242    -0.21800
C633        C  0.54011542  0.56360625  0.30946770    -0.09800
C634        C  0.57601033  0.57988866  0.31854793     0.29100
F635        F  0.60914267  0.56191991  0.30772755    -0.20300
H636        H  0.60598515  0.62441016  0.34935799     0.17400
H637        H  0.47837107  0.56961073  0.31537440     0.17400
F638        F  0.47485985  0.63098411  0.35834525    -0.20300
C639        C  0.40441405  0.51692337  0.28320923    -0.21800
C640        C  0.41434841  0.47800420  0.28912690    -0.09800
C641        C  0.39044661  0.45473522  0.31191298     0.29100
C642        C  0.35974560  0.47118229  0.33212744    -0.21800
C643        C  0.35288120  0.51118121  0.33042780    -0.09800
C644        C  0.37365206  0.53357952  0.30372156     0.29100
F645        F  0.36766999  0.57223547  0.30125628    -0.20300
H646        H  0.42307646  0.53537707  0.26618295     0.17400
H647        H  0.34366606  0.45328158  0.35213246     0.17400
F648        F  0.39944128  0.41711273  0.31809558    -0.20300
C649        C  0.62993803  0.50853441  0.17415213    -0.21800
C650        C  0.62351461  0.46868912  0.17723758    -0.09800
C651        C  0.64255520  0.44363122  0.15133071     0.29100
C652        C  0.66721076  0.45862878  0.12271421    -0.21800
C653        C  0.67354227  0.49864809  0.11990657    -0.09800
C654        C  0.65450675  0.52339755  0.14606431     0.29100
F655        F  0.65892331  0.56230479  0.14419019    -0.20300
H656        H  0.61561784  0.52854881  0.19354421     0.17400
H657        H  0.68164238  0.43897924  0.10305747     0.17400
F658        F  0.63657894  0.40494672  0.15291034    -0.20300
C659        C  0.86669981  0.48706156  0.66185254    -0.21800
C660        C  0.86640063  0.52601553  0.67330941    -0.09800
C661        C  0.84080299  0.55177118  0.65483108     0.29100
C662        C  0.81575934  0.53832654  0.62597116    -0.21800
C663        C  0.81568351  0.49912865  0.61556465    -0.09800
C664        C  0.84173121  0.47374235  0.63344575     0.29100
F665        F  0.84334371  0.43592008  0.62317456    -0.20300
H666        H  0.88631463  0.46651809  0.67499451     0.17400
H667        H  0.79571678  0.55825824  0.61253205     0.17400
F668        F  0.83989397  0.58973333  0.66452013    -0.20300
C669        C  0.81889436  0.58486796  0.86361488    -0.21800
C670        C  0.84227038  0.55480157  0.84945299    -0.09800
C671        C  0.83774323  0.51748601  0.86457456     0.29100
C672        C  0.81300531  0.51105746  0.89568581    -0.21800
C673        C  0.79283292  0.54176569  0.91284543    -0.09800
C674        C  0.79423047  0.57843962  0.89536619     0.29100
F675        F  0.77560493  0.60882352  0.91174919    -0.20300
H676        H  0.82245393  0.61392963  0.85260286     0.17400
H677        H  0.81273958  0.48272905  0.90905508     0.17400
F678        F  0.86014382  0.48794247  0.85174058    -0.20300
C679        C  0.90354063  0.67658046  0.00641334    -0.21800
C680        C  0.92183587  0.68811510  0.04061230    -0.09800
C681        C  0.90494093  0.67920403  0.07641050     0.29100
C682        C  0.87176893  0.65627996  0.07790225    -0.21800
C683        C  0.85594240  0.64110722  0.04372814    -0.09800
C684        C  0.87103805  0.65288233  0.00784132     0.29100
F685        F  0.85603044  0.63930680  0.97424431    -0.20300
H686        H  0.91656771  0.68279035  0.97862008     0.17400
H687        H  0.86059476  0.64758755  0.10585264     0.17400
F688        F  0.92205646  0.69040410  0.10984569    -0.20300
C689        C  0.01835466  0.65697032  0.85793981    -0.21800
C690        C  0.97853309  0.65484100  0.85066654    -0.09800
C691        C  0.95316485  0.67822726  0.87210804     0.29100
C692        C  0.96723674  0.69988228  0.90322171    -0.21800
C693        C  0.00653229  0.69852699  0.91288749    -0.09800
C694        C  0.03230981  0.67867124  0.88886989     0.29100
F695        F  0.07036051  0.67688748  0.89788694    -0.20300
H696        H  0.03836432  0.63929923  0.84157540     0.17400
H697        H  0.94698779  0.71464426  0.92200925     0.17400
F698        F  0.91450428  0.67636371  0.86622917    -0.20300
C699        C  0.08431328  0.47892984  0.78408495    -0.21800
C700        C  0.07230038  0.51728819  0.78911237    -0.09800
C701        C  0.09523075  0.54288498  0.81019550     0.29100
C702        C  0.12747838  0.52907504  0.82984034    -0.21800
C703        C  0.13651657  0.48947439  0.82932053    -0.09800
C704        C  0.11629129  0.46484171  0.80429924     0.29100
F705        F  0.12393971  0.42639247  0.80352468    -0.20300
H706        H  0.06654254  0.45894786  0.76793495     0.17400
H707        H  0.14305624  0.54858520  0.84861960     0.17400
F708        F  0.08402218  0.58012883  0.81523481    -0.20300
C709        C  0.34355039  0.51161136  0.86574974    -0.21800
C710        C  0.30833220  0.49781495  0.85125931    -0.09800
C711        C  0.30134963  0.50033394  0.81107249     0.29100
C712        C  0.32956882  0.51510498  0.78613919    -0.21800
C713        C  0.36536403  0.52696564  0.80061448    -0.09800
C714        C  0.37187629  0.52582452  0.84074439     0.29100
F715        F  0.40570648  0.53851029  0.85581121    -0.20300
H716        H  0.34966460  0.51047692  0.89644462     0.17400
H717        H  0.32399133  0.51592010  0.75531948     0.17400
F718        F  0.26753448  0.48807707  0.79565575    -0.20300
C719        C  0.14791902  0.63193308  0.96079196    -0.21800
C720        C  0.14776228  0.63973796  0.00068058    -0.09800
C721        C  0.17362098  0.61978606  0.02481329     0.29100
C722        C  0.19615636  0.58972250  0.00964464    -0.21800
C723        C  0.19266801  0.57904340  0.97064134    -0.09800
C724        C  0.17016322  0.60176611  0.94584705     0.29100
F725        F  0.16665523  0.59222488  0.90795404    -0.20300
H726        H  0.12851476  0.64728416  0.94164244     0.17400
H727        H  0.21340698  0.57235343  0.02908785     0.17400
F728        F  0.17363915  0.62601636  0.06358381    -0.20300
C729        C  0.97699854  0.37797842  0.84411457    -0.21800
C730        C  0.94070545  0.36377643  0.85508057    -0.09800
C731        C  0.90736745  0.37933045  0.83778602     0.29100
C732        C  0.91030824  0.41137707  0.81331307    -0.21800
C733        C  0.94644876  0.42738922  0.80484122    -0.09800
C734        C  0.97991363  0.40934160  0.81886864     0.29100
F735        F  0.01513438  0.42485206  0.81193281    -0.20300
H736        H  0.00302586  0.36627532  0.85695002     0.17400
H737        H  0.88423340  0.42546315  0.80328715     0.17400
F738        F  0.87178714  0.36634046  0.84771061    -0.20300
C739        C  0.80886969  0.36769945  0.95904152    -0.21800
C740        C  0.83674120  0.35081830  0.98312636    -0.09800
C741        C  0.84078981  0.36424668  0.02113059     0.29100
C742        C  0.82027823  0.39639176  0.03370961    -0.21800
C743        C  0.79568677  0.41621939  0.00845334    -0.09800
C744        C  0.78819207  0.40031533  0.97165869     0.29100
F745        F  0.76459877  0.41876866  0.94634613    -0.20300
H746        H  0.80597778  0.35818613  0.92934305     0.17400
H747        H  0.82629840  0.40777483  0.06216575     0.17400
F748        F  0.86802631  0.34898647  0.04464855    -0.20300
C749        C  0.08436896  0.30334638  0.91298451    -0.21800
C750        C  0.06903855  0.30418932  0.95069349    -0.09800
C751        C  0.08774155  0.32645407  0.97900579     0.29100
C752        C  0.11882869  0.34993722  0.96911021    -0.21800
C753        C  0.13212049  0.35181292  0.93088358    -0.09800
C754        C  0.11578354  0.32718640  0.90301332     0.29100
F755        F  0.12755868  0.32901525  0.86561343    -0.20300
H756        H  0.06980002  0.28721690  0.89051403     0.17400
H757        H  0.13070567  0.36901932  0.99084907     0.17400
F758        F  0.07346500  0.32843259  0.01554748    -0.20300
C759        C  0.16248388  0.47710998  0.29290652    -0.21800
C760        C  0.12366507  0.47621608  0.30461239    -0.09800
C761        C  0.11415037  0.48833833  0.34238615     0.29100
C762        C  0.14280887  0.50154744  0.36744263    -0.21800
C763        C  0.18134164  0.50365486  0.35528252    -0.09800
C764        C  0.19106538  0.49099733  0.31781491     0.29100
F765        F  0.22818736  0.49189677  0.30529912    -0.20300
H766        H  0.17064572  0.46786163  0.26410144     0.17400
H767        H  0.13463160  0.51129509  0.39608497     0.17400
F768        F  0.07714466  0.48760547  0.35524645    -0.20300
C769        C  0.16479405  0.41360168  0.06885201    -0.21800
C770        C  0.17938931  0.44910649  0.05607438    -0.09800
C771        C  0.17313343  0.48234263  0.07847944     0.29100
C772        C  0.14954242  0.48064552  0.11124258    -0.21800
C773        C  0.13289398  0.44557270  0.12262658    -0.09800
C774        C  0.14217416  0.41165803  0.10226384     0.29100
F775        F  0.12605177  0.37741332  0.11217930    -0.20300
H776        H  0.16882640  0.38783731  0.05153464     0.17400
H777        H  0.14251910  0.50707646  0.12648161     0.17400
F778        F  0.18609042  0.51715583  0.06628677    -0.20300
C779        C  0.08851397  0.61834217  0.15316101    -0.21800
C780        C  0.05788882  0.64250865  0.14235236    -0.09800
C781        C  0.02132476  0.63696921  0.15885677     0.29100
C782        C  0.01460728  0.60513235  0.18278113    -0.21800
C783        C  0.04436724  0.57880854  0.19060000    -0.09800
C784        C  0.08186469  0.58664250  0.17735725     0.29100
F785        F  0.11084415  0.56098727  0.18372142    -0.20300
H786        H  0.11665966  0.62187648  0.13998073     0.17400
H787        H  0.98538323  0.59891030  0.19197403     0.17400
F788        F  0.99123243  0.65978088  0.14832737    -0.20300
C789        C  0.01623703  0.29993335  0.08880299    -0.21800
C790        C  0.97690625  0.30175366  0.07926944    -0.09800
C791        C  0.95160166  0.32208832  0.10365779     0.29100
C792        C  0.96621402  0.34502523  0.13340117    -0.21800
C793        C  0.00604167  0.34686977  0.13977006    -0.09800
C794        C  0.03083081  0.32255767  0.11888052     0.29100
F795        F  0.06946854  0.32386714  0.12475538    -0.20300
H796        H  0.03625454  0.28430005  0.07047003     0.17400
H797        H  0.94675075  0.36345279  0.14963691     0.17400
F798        F  0.91310957  0.32176124  0.09711197    -0.20300
C799        C  0.86319222  0.53833750  0.17175389    -0.21800
C800        C  0.84434688  0.51347683  0.14600730    -0.09800
C801        C  0.85595885  0.47473459  0.14372923     0.29100
C802        C  0.88870772  0.46211411  0.16343040    -0.21800
C803        C  0.91014667  0.48789686  0.18606756    -0.09800
C804        C  0.89587568  0.52558028  0.19202267     0.29100
F805        F  0.91605574  0.55138527  0.21345912    -0.20300
H806        H  0.85498549  0.56850710  0.17323560     0.17400
H807        H  0.89901924  0.43294084  0.15861124     0.17400
F808        F  0.83783804  0.45013849  0.11930353    -0.20300
C809        C  0.51269905  0.15469950  0.66040933    -0.21800
C810        C  0.48765898  0.12614153  0.67453633    -0.09800
C811        C  0.44821202  0.12829364  0.66482631     0.29100
C812        C  0.43483985  0.15775549  0.64009219    -0.21800
C813        C  0.46067835  0.18513122  0.62483020    -0.09800
C814        C  0.49954776  0.18372180  0.63608399     0.29100
F815        F  0.52525149  0.21030071  0.62311226    -0.20300
H816        H  0.54308198  0.15440330  0.66767853     0.17400
H817        H  0.40472683  0.15836350  0.63180383     0.17400
F818        F  0.42274487  0.10221832  0.67914553    -0.20300
C819        C  0.54506950  0.66726184  0.83579775    -0.21800
C820        C  0.52024422  0.67872335  0.86593850    -0.09800
C821        C  0.48398763  0.66057989  0.86960605     0.29100
C822        C  0.47240926  0.63308847  0.84279844    -0.21800
C823        C  0.49678048  0.62239818  0.81242758    -0.09800
C824        C  0.53346310  0.63910702  0.80919252     0.29100
F825        F  0.55709403  0.62967430  0.77930428    -0.20300
H826        H  0.57311437  0.68055526  0.83240475     0.17400
H827        H  0.44405981  0.62022208  0.84556345     0.17400
F828        F  0.45936918  0.66935665  0.89891087    -0.20300
C829        C  0.51703393  0.86042189  0.82215388    -0.21800
C830        C  0.55416386  0.85413515  0.83684993    -0.09800
C831        C  0.58470370  0.87744524  0.82399010     0.29100
C832        C  0.57732572  0.90891962  0.79949911    -0.21800
C833        C  0.53944347  0.91743599  0.78788483    -0.09800
C834        C  0.50965717  0.89187615  0.79787499     0.29100
F835        F  0.47269829  0.89990241  0.78782044    -0.20300
H836        H  0.49307080  0.84318852  0.83245587     0.17400
H837        H  0.60043884  0.92892513  0.79304530     0.17400
F838        F  0.62073360  0.87233984  0.83847673    -0.20300
C839        C  0.61080140  0.64662315  0.99667790    -0.21800
C840        C  0.62225710  0.68524920  0.99316115    -0.09800
C841        C  0.65958126  0.69596232  0.00493142     0.29100
C842        C  0.68545657  0.66804150  0.01833598    -0.21800
C843        C  0.67471267  0.62902725  0.01977034    -0.09800
C844        C  0.63676625  0.61864619  0.00960766     0.29100
F845        F  0.62473933  0.58142534  0.01179517    -0.20300
H846        H  0.58215608  0.63776961  0.98793763     0.17400
H847        H  0.71431314  0.67679460  0.02643420     0.17400
F848        F  0.67119831  0.73333397  0.00312054    -0.20300
C849        C  0.85797879  0.17418046  0.03328600    -0.21800
C850        C  0.86672016  0.17715034  0.99371969    -0.09800
C851        C  0.84696512  0.15349229  0.96731216     0.29100
C852        C  0.81872217  0.12794643  0.98007787    -0.21800
C853        C  0.80910354  0.12533914  0.01945451    -0.09800
C854        C  0.82917302  0.14868824  0.04614527     0.29100
F855        F  0.82123090  0.14679159  0.08455219    -0.20300
H856        H  0.87268988  0.19231687  0.05406071     0.17400
H857        H  0.80416353  0.11024318  0.95881916     0.17400
F858        F  0.85520463  0.15478181  0.92891610    -0.20300
C859        C  0.63944090  0.08300940  0.87413341    -0.21800
C860        C  0.62674893  0.04846424  0.85716361    -0.09800
C861        C  0.64115376  0.01305546  0.87087748     0.29100
C862        C  0.66585682  0.01225769  0.90278050    -0.21800
C863        C  0.67548946  0.04658457  0.92192551    -0.09800
C864        C  0.66311040  0.08209438  0.90678766     0.29100
F865        F  0.67166265  0.11559591  0.92521861    -0.20300
H866        H  0.62844560  0.11056595  0.86412211     0.17400
H867        H  0.67450941  0.98462099  0.91470132     0.17400
F868        F  0.62963108  0.97922471  0.85484107    -0.20300
C869        C  0.69359511  0.90729284  0.96927546    -0.21800
C870        C  0.68936366  0.91906108  0.00793619    -0.09800
C871        C  0.66594055  0.89748051  0.03286846     0.29100
C872        C  0.64392563  0.86709324  0.01840691    -0.21800
C873        C  0.64486251  0.85787526  0.97883054    -0.09800
C874        C  0.67163315  0.87659762  0.95471664     0.29100
F875        F  0.67314816  0.86850505  0.91632723    -0.20300
H876        H  0.71084847  0.92431315  0.94947780     0.17400
H877        H  0.62374390  0.85277343  0.03756676     0.17400
F878        F  0.66110652  0.90857080  0.07021768    -0.20300
C879        C  0.45440743  0.82030816  0.11273314    -0.21800
C880        C  0.48029017  0.84459647  0.13216076    -0.09800
C881        C  0.51962312  0.84361801  0.12210360     0.29100
C882        C  0.53185916  0.82290817  0.08983931    -0.21800
C883        C  0.50519702  0.80235828  0.06778764    -0.09800
C884        C  0.46681972  0.79925652  0.08046676     0.29100
F885        F  0.44064227  0.77923751  0.05935310    -0.20300
H886        H  0.42400718  0.82061873  0.12001607     0.17400
H887        H  0.56147779  0.82561154  0.08016062     0.17400
F888        F  0.54563141  0.86549467  0.14136215    -0.20300
C889        C  0.51369540  0.85238815  0.37124911    -0.21800
C890        C  0.51981712  0.81343384  0.36163385    -0.09800
C891        C  0.51138927  0.80088949  0.32392892     0.29100
C892        C  0.49602120  0.82674648  0.29685452    -0.21800
C893        C  0.48936748  0.86563459  0.30666655    -0.09800
C894        C  0.49891824  0.87833848  0.34411162     0.29100
F895        F  0.49282415  0.91550015  0.35507099    -0.20300
H896        H  0.52012548  0.86279234  0.40007752     0.17400
H897        H  0.48907834  0.81623555  0.26819523     0.17400
F898        F  0.51650288  0.76339698  0.31367099    -0.20300
C899        C  0.62744839  0.97160311  0.15277735    -0.21800
C900        C  0.63432042  0.01148780  0.14995516    -0.09800
C901        C  0.61309633  0.03699356  0.17337734     0.29100
C902        C  0.58239616  0.02301560  0.19563407    -0.21800
C903        C  0.57252496  0.98378280  0.19430267    -0.09800
C904        C  0.59673887  0.95781491  0.17493448     0.29100
F905        F  0.58831811  0.91963453  0.17427769    -0.20300
H906        H  0.64383587  0.95148693  0.13536947     0.17400
H907        H  0.56405003  0.04321315  0.21068731     0.17400
F908        F  0.61858930  0.07571197  0.17087018    -0.20300
C909        C  0.18667199  0.83356224  0.96262817    -0.21800
C910        C  0.17681184  0.87282098  0.96565761    -0.09800
C911        C  0.14076750  0.88302977  0.98166975     0.29100
C912        C  0.11538566  0.85446560  0.99427689    -0.21800
C913        C  0.12565626  0.81538539  0.99195233    -0.09800
C914        C  0.16152619  0.80505330  0.97599044     0.29100
F915        F  0.17215333  0.76741154  0.97306341    -0.20300
H916        H  0.21415723  0.82488861  0.95045106     0.17400
H917        H  0.08807478  0.86298124  0.00698166     0.17400
F918        F  0.12991937  0.92054638  0.98534985    -0.20300
C919        C  0.36900294  0.84275438  0.90267996    -0.21800
C920        C  0.35492166  0.86080515  0.93626036    -0.09800
C921        C  0.37087027  0.85109535  0.97235591     0.29100
C922        C  0.40262972  0.82644089  0.97429839    -0.21800
C923        C  0.41925006  0.81184683  0.94037442    -0.09800
C924        C  0.40152716  0.81887466  0.90461510     0.29100
F925        F  0.41744489  0.80513512  0.87146021    -0.20300
H926        H  0.35711716  0.84992807  0.87460876     0.17400
H927        H  0.41657235  0.82192304  0.00194301     0.17400
F928        F  0.35757850  0.86764429  0.00541444    -0.20300
C929        C  0.38232656  0.03643681  0.80837088    -0.21800
C930        C  0.40464544  0.00972595  0.78768745    -0.09800
C931        C  0.39094294  0.97176731  0.78307116     0.29100
C932        C  0.35863249  0.95947048  0.80411542    -0.21800
C933        C  0.33954237  0.98528337  0.82885305    -0.09800
C934        C  0.34991103  0.02432996  0.82874763     0.29100
F935        F  0.33132424  0.04977247  0.85203167    -0.20300
H936        H  0.39191409  0.06595117  0.81155251     0.17400
H937        H  0.35110368  0.92912722  0.80422014     0.17400
F938        F  0.41141939  0.94547276  0.76239693    -0.20300
C939        C  0.31954827  0.98984438  0.08098687    -0.21800
C940        C  0.29737749  0.96029744  0.06462659    -0.09800
C941        C  0.29634588  0.92400700  0.08298795     0.29100
C942        C  0.32019822  0.91673478  0.11523494    -0.21800
C943        C  0.34517469  0.94557795  0.12901190    -0.09800
C944        C  0.34343614  0.98255354  0.11246773     0.29100
F945        F  0.36759780  0.01082083  0.12446701    -0.20300
H946        H  0.32108794  0.01785765  0.06704562     0.17400
H947        H  0.32164952  0.88784488  0.12715911     0.17400
F948        F  0.27578138  0.89463210  0.06730870    -0.20300
C949        C  0.47079123  0.30010623  0.15681642    -0.21800
C950        C  0.46951980  0.31184936  0.11795480    -0.09800
C951        C  0.48276616  0.34901839  0.10806816     0.29100
C952        C  0.49686364  0.37374478  0.13657047    -0.21800
C953        C  0.49880207  0.36173345  0.17523805    -0.09800
C954        C  0.48564239  0.32461269  0.18521814     0.29100
F955        F  0.48676147  0.31212686  0.22243785    -0.20300
H956        H  0.46091160  0.27163742  0.16515278     0.17400
H957        H  0.50715131  0.40206752  0.12821904     0.17400
F958        F  0.48199651  0.36168489  0.07090680    -0.20300
C959        C  0.40604423  0.08359820  0.16723150    -0.21800
C960        C  0.44227030  0.07128328  0.18040932    -0.09800
C961        C  0.47492529  0.09379075  0.17242663     0.29100
C962        C  0.47202006  0.12542185  0.14750268    -0.21800
C963        C  0.43630712  0.13555267  0.13138927    -0.09800
C964        C  0.40290938  0.11581112  0.14313109     0.29100
F965        F  0.36798432  0.12479053  0.12780135    -0.20300
H966        H  0.38061709  0.06646872  0.17314599     0.17400
H967        H  0.49797758  0.14054778  0.13890607     0.17400
F968        F  0.51023800  0.08256716  0.18488281    -0.20300
C969        C  0.58616388  0.19672776  0.06533626    -0.21800
C970        C  0.56781636  0.19351043  0.02921966    -0.09800
C971        C  0.58451041  0.17004591  0.00056217     0.29100
C972        C  0.61644247  0.14719854  0.00911934    -0.21800
C973        C  0.63246212  0.14721247  0.04629102    -0.09800
C974        C  0.61847803  0.17354011  0.07394423     0.29100
F975        F  0.63322065  0.17374733  0.11027911    -0.20300
H976        H  0.57326858  0.21408388  0.08799770     0.17400
H977        H  0.62657725  0.12682827  0.98760397     0.17400
F978        F  0.56732560  0.16602711  0.96550314    -0.20300
C979        C  0.33736254  0.14084465  0.96257159    -0.21800
C980        C  0.33476195  0.14961501  0.00204677    -0.09800
C981        C  0.30934947  0.12872127  0.02560791     0.29100
C982        C  0.28947180  0.09707228  0.01036807    -0.21800
C983        C  0.29554150  0.08558849  0.97179015    -0.09800
C984        C  0.31800922  0.10899909  0.94746604     0.29100
F985        F  0.32376711  0.09938854  0.90991378    -0.20300
H986        H  0.35736222  0.15644712  0.94424175     0.17400
H987        H  0.27259134  0.07924597  0.02977004     0.17400
F988        F  0.30734739  0.13598590  0.06413632    -0.20300
C989        C  0.35934531  0.32323216  0.94850899    -0.21800
C990        C  0.36406176  0.31853397  0.98863358    -0.09800
C991        C  0.34022225  0.33976930  0.01390827     0.29100
C992        C  0.31269760  0.36518266  0.99940228    -0.21800
C993        C  0.30783060  0.37010305  0.95942063    -0.09800
C994        C  0.33120933  0.34860180  0.93389895     0.29100
F995        F  0.32760532  0.35276827  0.89503584    -0.20300
H996        H  0.37708815  0.30692480  0.92850681     0.17400
H997        H  0.29512675  0.38126647  0.01975922     0.17400
F998        F  0.34387477  0.33664330  0.05289660    -0.20300
C999        C  0.52104792  0.17628542  0.85818605    -0.21800
C1000       C  0.49743979  0.14783498  0.84190216    -0.09800
C1001       C  0.45910157  0.14437294  0.85437649     0.29100
C1002       C  0.44590395  0.16583762  0.88579866    -0.21800
C1003       C  0.47082328  0.19106524  0.90523048    -0.09800
C1004       C  0.50777080  0.19809787  0.88967655     0.29100
F1005       F  0.53265236  0.22236456  0.90767607    -0.20300
H1006       H  0.55083011  0.17896428  0.84906923     0.17400
H1007       H  0.41723433  0.16028826  0.89696758     0.17400
F1008       F  0.43557113  0.11753489  0.83844616    -0.20300
C1009       C  0.01390976  0.64612292  0.61120444    -0.21800
C1010       C  0.02213859  0.68444328  0.62157105    -0.09800
C1011       C  0.01674652  0.69601299  0.66020435     0.29100
C1012       C  0.00148629  0.67011417  0.68728063    -0.21800
C1013       C  0.99216606  0.63207013  0.67656455    -0.09800
C1014       C  0.99946209  0.62004651  0.63838032     0.29100
F1015       F  0.99120882  0.58355837  0.62675617    -0.20300
H1016       H  0.01831779  0.63636171  0.58175633     0.17400
H1017       H  0.99657390  0.67996578  0.71661712     0.17400
F1018       F  0.02466095  0.73269323  0.67147362    -0.20300
C1019       C  0.15869220  0.65130634  0.43595139    -0.21800
C1020       C  0.18023442  0.62867655  0.46206441    -0.09800
C1021       C  0.17215668  0.63173423  0.50191291     0.29100
C1022       C  0.14364044  0.65673153  0.51512670    -0.21800
C1023       C  0.12212912  0.67938617  0.48933532    -0.09800
C1024       C  0.12965340  0.67639662  0.44942421     0.29100
F1025       F  0.10993322  0.69847803  0.42369441    -0.20300
H1026       H  0.16411261  0.64935585  0.40515456     0.17400
H1027       H  0.13845749  0.65844369  0.54600122     0.17400
F1028       F  0.19209104  0.61091495  0.52855390    -0.20300
C1029       C  0.65674033  0.85098923  0.54459061    -0.21800
C1030       C  0.68326020  0.86781803  0.51889579    -0.09800
C1031       C  0.68192847  0.85761404  0.47953712     0.29100
C1032       C  0.65398933  0.83213086  0.46606147    -0.21800
C1033       C  0.62640316  0.81630974  0.49125304    -0.09800
C1034       C  0.62831009  0.82559566  0.53092304     0.29100
F1035       F  0.60286440  0.81021684  0.55646620    -0.20300
H1036       H  0.65720494  0.85850304  0.57499830     0.17400
H1037       H  0.65361907  0.82531817  0.43548431     0.17400
F1038       F  0.70762230  0.87243611  0.45385010    -0.20300
C1039       C  0.86328259  0.83577566  0.51961592    -0.21800
C1040       C  0.85748278  0.85211050  0.55626679    -0.09800
C1041       C  0.88190238  0.84152995  0.58689106     0.29100
C1042       C  0.91341319  0.81700892  0.58009069    -0.21800
C1043       C  0.92096619  0.80315058  0.54267031    -0.09800
C1044       C  0.89488316  0.81151004  0.51277503     0.29100
F1045       F  0.90235766  0.79960896  0.47611126    -0.20300
H1046       H  0.84523544  0.84443613  0.49554652     0.17400
H1047       H  0.93400574  0.81197340  0.60311777     0.17400
F1048       F  0.87750449  0.85790163  0.62230564    -0.20300
C1049       C  0.68784905  0.00883181  0.66065739    -0.21800
C1050       C  0.67766585  0.99662496  0.62325265    -0.09800
C1051       C  0.63880719  0.99845021  0.61191849     0.29100
C1052       C  0.61073134  0.01151039  0.63781003    -0.21800
C1053       C  0.62073342  0.02336254  0.67539792    -0.09800
C1054       C  0.65977673  0.02238704  0.68646001     0.29100
F1055       F  0.67075068  0.03328932  0.72251022    -0.20300
H1056       H  0.71763130  0.00761135  0.67004457     0.17400
H1057       H  0.58092645  0.01196378  0.62845106     0.17400
F1058       F  0.62762020  0.98598194  0.57644385    -0.20300
C1059       C  0.12554840  0.99175961  0.81050193    -0.21800
C1060       C  0.12199871  0.03168233  0.80411598    -0.09800
C1061       C  0.14400460  0.05715942  0.82687464     0.29100
C1062       C  0.16876624  0.04255628  0.85559688    -0.21800
C1063       C  0.17206905  0.00250325  0.86162289    -0.09800
C1064       C  0.15002471  0.97732022  0.83876882     0.29100
F1065       F  0.15147857  0.93848468  0.84413251    -0.20300
H1066       H  0.10899316  0.97127789  0.79367689     0.17400
H1067       H  0.18574376  0.06243837  0.87269637     0.17400
F1068       F  0.14112582  0.09592993  0.82193573    -0.20300
C1069       C  0.08484713  0.92268190  0.65861165    -0.21800
C1070       C  0.04949784  0.93345175  0.67529342    -0.09800
C1071       C  0.01785087  0.90834296  0.67253058     0.29100
C1072       C  0.02055207  0.87496056  0.64992822    -0.21800
C1073       C  0.05516125  0.86564690  0.63101903    -0.09800
C1074       C  0.08789541  0.88868214  0.63706962     0.29100
F1075       F  0.12153488  0.88073100  0.61855552    -0.20300
H1076       H  0.10938954  0.94194929  0.66009710     0.17400
H1077       H  0.99500379  0.85761845  0.64524623     0.17400
F1078       F  0.98318828  0.91827833  0.68784632    -0.20300
C1079       C  0.96610924  0.19618719  0.82533589    -0.21800
C1080       C  0.96718713  0.18496708  0.86435560    -0.09800
C1081       C  0.98102663  0.14780027  0.87379951     0.29100
C1082       C  0.99396213  0.12287372  0.84477493    -0.21800
C1083       C  0.99407192  0.13462921  0.80596094    -0.09800
C1084       C  0.97973873  0.17146603  0.79639136     0.29100
F1085       F  0.97886896  0.18360359  0.75906017    -0.20300
H1086       H  0.95553711  0.22451753  0.81725651     0.17400
H1087       H  0.00510013  0.09474370  0.85282970     0.17400
F1088       F  0.98227889  0.13544219  0.91105933    -0.20300
C1089       C  0.86962084  0.96999934  0.67326682    -0.21800
C1090       C  0.85300071  0.99364692  0.64476457    -0.09800
C1091       C  0.86504732  0.03234127  0.64160720     0.29100
C1092       C  0.89651071  0.04540665  0.66271299    -0.21800
C1093       C  0.91601603  0.02036880  0.68759056    -0.09800
C1094       C  0.90120224  0.98333380  0.69465119     0.29100
F1095       F  0.91993323  0.95872747  0.71876294    -0.20300
H1096       H  0.86080764  0.94015895  0.67623873     0.17400
H1097       H  0.90790627  0.07393866  0.65686516     0.17400
F1098       F  0.84890658  0.05647599  0.61531225    -0.20300
C1099       C  0.01425941  0.34012286  0.31551364    -0.21800
C1100       C  0.99149398  0.37235213  0.30562212    -0.09800
C1101       C  0.95354726  0.37468205  0.32014643     0.29100
C1102       C  0.93935559  0.34563601  0.34467086    -0.21800
C1103       C  0.96292043  0.31432827  0.35533400    -0.09800
C1104       C  0.00032054  0.31161766  0.34012519     0.29100
F1105       F  0.02351471  0.28123516  0.34904479    -0.20300
H1106       H  0.04337193  0.33697289  0.30454052     0.17400
H1107       H  0.91047688  0.34826036  0.35639527     0.17400
F1108       F  0.93038701  0.40501914  0.31115398    -0.20300
C1109       C  0.83061473  0.13507962  0.51010845    -0.21800
C1110       C  0.83381918  0.13999853  0.46989494    -0.09800
C1111       C  0.81206090  0.11634046  0.44523422     0.29100
C1112       C  0.79116663  0.08536076  0.46066128    -0.21800
C1113       C  0.79170273  0.07793129  0.50059230    -0.09800
C1114       C  0.80954271  0.10433312  0.52540600     0.29100
F1115       F  0.80981210  0.09816193  0.56411330    -0.20300
H1116       H  0.84699600  0.15325145  0.52955451     0.17400
H1117       H  0.77767106  0.06502974  0.44116142     0.17400
F1118       F  0.81499884  0.12000006  0.40624232    -0.20300
C1119       C  0.87008329  0.35326832  0.48377304    -0.21800
C1120       C  0.85878304  0.31444183  0.48300355    -0.09800
C1121       C  0.82227059  0.30417944  0.49743725     0.29100
C1122       C  0.79730602  0.33253503  0.51171523    -0.21800
C1123       C  0.80805882  0.37160771  0.51133520    -0.09800
C1124       C  0.84497020  0.38170171  0.49749284     0.29100
F1125       F  0.85695647  0.41899629  0.49713782    -0.20300
H1126       H  0.89803517  0.36179028  0.47266592     0.17400
H1127       H  0.76922958  0.32395044  0.52241892     0.17400
F1128       F  0.81078461  0.26673267  0.49794918    -0.20300
C1129       C  0.96250117  0.15558748  0.61773964    -0.21800
C1130       C  0.00178236  0.15766932  0.62774952    -0.09800
C1131       C  0.02596858  0.18278423  0.60698251     0.29100
C1132       C  0.01180921  0.20211988  0.57427479    -0.21800
C1133       C  0.97355064  0.19668665  0.56219347    -0.09800
C1134       C  0.94852627  0.17466871  0.58504746     0.29100
F1135       F  0.91156607  0.16865168  0.57365994    -0.20300
H1136       H  0.94331665  0.13643957  0.63334241     0.17400
H1137       H  0.03162482  0.21839114  0.55634791     0.17400
F1138       F  0.06414594  0.18493233  0.61529030    -0.20300
C1139       C  0.82834588  0.97914578  0.18840169    -0.21800
C1140       C  0.86591394  0.97263716  0.17465545    -0.09800
C1141       C  0.87401882  0.97933162  0.13531263     0.29100
C1142       C  0.84510729  0.99270979  0.11048240    -0.21800
C1143       C  0.80780431  0.00039151  0.12446211    -0.09800
C1144       C  0.79961471  0.99324100  0.16375796     0.29100
F1145       F  0.76390758  0.99993861  0.17850005    -0.20300
H1146       H  0.82144123  0.97427802  0.21858179     0.17400
H1147       H  0.85224089  0.99805204  0.08044191     0.17400
F1148       F  0.90981957  0.97278852  0.12073480    -0.20300
C1149       C  0.84307612  0.91183130  0.37217122    -0.21800
C1150       C  0.85429763  0.94620083  0.35382279    -0.09800
C1151       C  0.83904732  0.98157807  0.36657928     0.29100
C1152       C  0.81525136  0.98267153  0.39914290    -0.21800
C1153       C  0.80747402  0.94875333  0.41982594    -0.09800
C1154       C  0.82037707  0.91312567  0.40550106     0.29100
F1155       F  0.81361469  0.88007394  0.42549278    -0.20300
H1156       H  0.85483825  0.88432917  0.36289867     0.17400
H1157       H  0.80612898  0.01038680  0.41036242     0.17400
F1158       F  0.84928056  0.01520496  0.34920104    -0.20300
C1159       C  0.02155016  0.84938141  0.35471902    -0.21800
C1160       C  0.98264934  0.84692392  0.34426213    -0.09800
C1161       C  0.95862192  0.82051547  0.36342578     0.29100
C1162       C  0.97271134  0.79963357  0.39526103    -0.21800
C1163       C  0.01069378  0.80537222  0.40834503    -0.09800
C1164       C  0.03558727  0.82867606  0.38632972     0.29100
F1165       F  0.07274009  0.83388570  0.39721304    -0.20300
H1166       H  0.04035463  0.86975185  0.34025221     0.17400
H1167       H  0.95292631  0.78198107  0.41183231     0.17400
F1168       F  0.92070019  0.81807685  0.35405231    -0.20300
C1169       C  0.97739502  0.10088963  0.29953330    -0.21800
C1170       C  0.94740573  0.07763019  0.28578676    -0.09800
C1171       C  0.90898758  0.08963035  0.29104373     0.29100
C1172       C  0.90083470  0.12216177  0.31386069    -0.21800
C1173       C  0.93099509  0.14299195  0.33097398    -0.09800
C1174       C  0.96928216  0.13350194  0.32179062     0.29100
F1175       F  0.99885681  0.15310192  0.33820618    -0.20300
H1176       H  0.00711724  0.09167034  0.29623452     0.17400
H1177       H  0.87116614  0.12870365  0.32129393     0.17400
F1178       F  0.87949452  0.06722630  0.27842917    -0.20300
C1179       C  0.97038138  0.85215268  0.14831084    -0.21800
C1180       C  0.99671934  0.87141875  0.17203195    -0.09800
C1181       C  0.03616781  0.86228778  0.16949879     0.29100
C1182       C  0.04878473  0.83412624  0.14313523    -0.21800
C1183       C  0.02216445  0.81512428  0.11904683    -0.09800
C1184       C  0.98269128  0.82440192  0.12222520     0.29100
F1185       F  0.95554348  0.80661105  0.10030920    -0.20300
H1186       H  0.93982727  0.85869581  0.14987295     0.17400
H1187       H  0.07926288  0.82742267  0.14135108     0.17400
F1188       F  0.06213214  0.87960637  0.19313935    -0.20300
C1189       C  0.37195673  0.14537452  0.48666445    -0.21800
C1190       C  0.35950796  0.18340133  0.49296932    -0.09800
C1191       C  0.32107842  0.19339949  0.48384355     0.29100
C1192       C  0.29564050  0.16554113  0.46957103    -0.21800
C1193       C  0.30778980  0.12721004  0.46471430    -0.09800
C1194       C  0.34643101  0.11746617  0.47295341     0.29100
F1195       F  0.35966116  0.08087358  0.46792030    -0.20300
H1196       H  0.40128113  0.13688360  0.49339814     0.17400
H1197       H  0.26609740  0.17371387  0.46342003     0.17400
F1198       F  0.30788720  0.22998733  0.48894282    -0.20300
C1199       C  0.11192263  0.15019862  0.40292376    -0.21800
C1200       C  0.12538454  0.13404491  0.43770686    -0.09800
C1201       C  0.10815422  0.14521420  0.47281679     0.29100
C1202       C  0.07631054  0.16991676  0.47274013    -0.21800
C1203       C  0.06068859  0.18293916  0.43772739    -0.09800
C1204       C  0.07933738  0.17404762  0.40284234     0.29100
F1205       F  0.06466101  0.18649087  0.36866936    -0.20300
H1206       H  0.12471076  0.14193575  0.37553095     0.17400
H1207       H  0.06172236  0.17601077  0.49981098     0.17400
F1208       F  0.12055911  0.13046628  0.50696877    -0.20300
C1209       C  0.17646819  0.08855774  0.57057227    -0.21800
C1210       C  0.19203947  0.05129687  0.56725062    -0.09800
C1211       C  0.18593665  0.02449166  0.59706825     0.29100
C1212       C  0.16195927  0.03394278  0.62826354    -0.21800
C1213       C  0.14334462  0.06990407  0.62953470    -0.09800
C1214       C  0.15176287  0.09772970  0.60125824     0.29100
F1215       F  0.13314015  0.13225613  0.60125798    -0.20300
H1216       H  0.18032534  0.10920833  0.54735822     0.17400
H1217       H  0.15494002  0.01190177  0.64937061     0.17400
F1218       F  0.19990917  0.98801212  0.59400571    -0.20300
C1219       C  0.12891539  0.02822371  0.30754440    -0.21800
C1220       C  0.14324613  0.00502968  0.33757330    -0.09800
C1221       C  0.12856010  0.96764733  0.34258423     0.29100
C1222       C  0.09685751  0.95549890  0.32122670    -0.21800
C1223       C  0.07898347  0.98056262  0.29481938    -0.09800
C1224       C  0.09683617  0.01602237  0.28602660     0.29100
F1225       F  0.08062167  0.04078932  0.26028991    -0.20300
H1226       H  0.13980855  0.05724533  0.30355332     0.17400
H1227       H  0.08404443  0.92781600  0.32804646     0.17400
F1228       F  0.14220914  0.94449054  0.37117655    -0.20300
C1229       C  0.34320511  0.94571445  0.32911076    -0.21800
C1230       C  0.36411643  0.97275250  0.30714886    -0.09800
C1231       C  0.35925859  0.01237661  0.31477323     0.29100
C1232       C  0.33397632  0.02452606  0.34343446    -0.21800
C1233       C  0.31299992  0.99774248  0.36537023    -0.09800
C1234       C  0.31794003  0.95808202  0.35832012     0.29100
F1235       F  0.29767741  0.93150228  0.37876653    -0.20300
H1236       H  0.34680690  0.91506181  0.32401502     0.17400
H1237       H  0.33073911  0.05525871  0.34843133     0.17400
F1238       F  0.37857994  0.03966971  0.29428208    -0.20300
C1239       C  0.17573106  0.86953625  0.53130358    -0.21800
C1240       C  0.15387653  0.84778279  0.50522908    -0.09800
C1241       C  0.15637442  0.85557423  0.46553046     0.29100
C1242       C  0.17633800  0.88805082  0.45258265    -0.21800
C1243       C  0.19454753  0.91252409  0.47917596    -0.09800
C1244       C  0.19639946  0.90164042  0.51833230     0.29100
F1245       F  0.21368366  0.92480348  0.54474369    -0.20300
H1246       H  0.17368367  0.86401190  0.56207489     0.17400
H1247       H  0.17503157  0.89575061  0.42225100     0.17400
F1248       F  0.13633241  0.83396556  0.43982837    -0.20300
loop_ 
_geom_bond_atom_site_label_1 
_geom_bond_atom_site_label_2 
_geom_bond_distance 
_geom_bond_site_symmetry_2 
_ccdc_geom_bond_type 
O1           C16   1.264       .  A
O1           Al9   1.915       .  S
C2           O12   1.261       .  A
C2            O3   1.260       .  A
C2         C1220   1.468       .  S
O3           Al5   1.892       .  S
O4            C6   1.257       .  A
O4           Al5   1.889   1_565  S
Al5          O13   1.891       .  S
Al5          O15   1.910       .  S
Al5          O14   1.766       .  S
C6           O19   1.261       .  A
C6         C1243   1.469       .  S
O7           C17   1.267   1_565  A
O7           Al9   1.911   1_565  S
O8           C21   1.264       .  A
O8          Al18   1.911       .  S
Al9          O22   1.904       .  S
Al9          O19   1.925   1_545  S
Al9          O14   1.784       .  S
O10          C17   1.265       .  A
O10         Al18   1.898       .  S
O11          C20   1.262       .  A
O11         Al18   1.914       .  S
O12         Al18   1.914       .  S
O13          C20   1.259       .  A
O14         Al18   1.781       .  S
O15          C16   1.263       .  A
C16        C1210   1.465       .  S
C17        C1233   1.470   1_545  S
C20        C1200   1.473       .  S
C21          O22   1.261       .  A
C21        C1193   1.478       .  S
O23          C38   1.262       .  A
O23         Al31   1.915   1_545  S
C24          O34   1.262       .  A
C24          O25   1.262       .  A
C24        C1160   1.467       .  S
O25         Al27   1.908       .  S
O26          C28   1.258       .  A
O26         Al27   1.876   1_455  S
Al27         O35   1.890       .  S
Al27         O37   1.907   1_565  S
Al27         O36   1.763       .  S
C28          O41   1.265       .  A
C28        C1223   1.477       .  S
O29          C39   1.263       .  A
O29         Al31   1.908       .  S
O30          C43   1.263       .  A
O30         Al40   1.899       .  S
Al31         O44   1.927       .  S
Al31         O41   1.942   1_655  S
Al31         O36   1.784       .  S
O32          C39   1.263       .  A
O32         Al40   1.895       .  S
O33          C42   1.261       .  A
O33         Al40   1.914       .  S
O34         Al40   1.911       .  S
O35          C42   1.259       .  A
O36         Al40   1.779       .  S
O37          C38   1.262       .  A
C38        C1170   1.467       .  S
C39        C1180   1.467       .  S
C42        C1150   1.466       .  S
C43          O44   1.266       .  A
C43        C1140   1.479       .  S
O45          C60   1.260       .  A
O45         Al53   1.878       .  S
C46          O56   1.258       .  A
C46          O47   1.268       .  A
C46        C1110   1.472       .  S
O47         Al49   1.949       .  S
O48          C50   1.260       .  A
O48         Al49   1.885       .  S
Al49         O57   1.911       .  S
Al49         O59   1.939       .  S
Al49         O58   1.785       .  S
C50          O63   1.266       .  A
C50        C1120   1.473       .  S
O51          C61   1.261       .  A
O51         Al53   1.907       .  S
O52          C65   1.258   1_655  A
O52         Al62   1.885       .  S
Al53         O66   1.937   1_655  S
Al53         O63   1.926       .  S
Al53         O58   1.781       .  S
O54          C61   1.262       .  A
O54         Al62   1.912       .  S
O55          C64   1.262       .  A
O55         Al62   1.910       .  S
O56         Al62   1.874       .  S
O57          C64   1.260       .  A
O58         Al62   1.763       .  S
O59          C60   1.267       .  A
C60        C1103   1.472       .  S
C61        C1133   1.466       .  S
C64        C1173   1.468       .  S
C65          O66   1.265       .  A
C65        C1203   1.462       .  S
O67          C82   1.257       .  A
O67         Al75   1.858       .  S
C68          O78   1.258       .  A
C68          O69   1.273       .  A
C68        C1130   1.478       .  S
O69         Al71   1.965       .  S
O70          C72   1.259       .  A
O70         Al71   1.885       .  S
Al71         O79   1.909       .  S
Al71         O81   1.952       .  S
Al71         O80   1.780       .  S
C72          O85   1.267       .  A
C72        C1083   1.476   1_455  S
O73          C83   1.258       .  A
O73         Al75   1.897   1_655  S
O74          C87   1.260       .  A
O74         Al84   1.882   1_565  S
Al75         O88   1.950   1_545  S
Al75         O85   1.929       .  S
Al75         O80   1.778       .  S
O76          C83   1.261       .  A
O76         Al84   1.907   1_655  S
O77          C86   1.260       .  A
O77         Al84   1.912       .  S
O78         Al84   1.867       .  S
O79          C86   1.259       .  A
O80         Al84   1.763       .  S
O81          C82   1.270       .  A
C82        C1060   1.481       .  S
C83        C1093   1.457       .  S
C86        C1213   1.465       .  S
C87          O88   1.269       .  A
C87        C1070   1.470       .  S
O89         C104   1.258       .  A
O89         Al97   1.871       .  S
C90         O100   1.259       .  A
C90          O91   1.271       .  A
C90        C1090   1.474       .  S
O91         Al93   1.951       .  S
O92          C94   1.258       .  A
O92         Al93   1.884       .  S
Al93        O101   1.911       .  S
Al93        O103   1.944       .  S
Al93        O102   1.783       .  S
C94         O107   1.266       .  A
C94        C1050   1.478       .  S
O95         C105   1.260       .  A
O95         Al97   1.911   1_545  S
O96         C109   1.259       .  A
O96        Al106   1.879       .  S
Al97        O110   1.940       .  S
Al97        O107   1.927       .  S
Al97        O102   1.781       .  S
O98         C105   1.261       .  A
O98        Al106   1.913   1_545  S
O99         C108   1.260       .  A
O99        Al106   1.914       .  S
O100       Al106   1.865       .  S
O101        C108   1.259       .  A
O102       Al106   1.765       .  S
O103        C104   1.268       .  A
C104       C1030   1.479       .  S
C105       C1113   1.466       .  S
C108       C1040   1.469       .  S
C109        O110   1.267       .  A
C109       C1153   1.460       .  S
O111        C126   1.265       .  A
O111       Al119   1.922   1_655  S
C112        O122   1.259       .  A
C112        O113   1.262       .  A
C112       C1240   1.460       .  S
O113       Al115   1.903       .  S
O114        C116   1.258       .  A
O114       Al115   1.888       .  S
Al115       O123   1.890       .  S
Al115       O125   1.904   1_455  S
Al115       O124   1.765       .  S
C116        O129   1.265       .  A
C116       C1163   1.479       .  S
O117        C127   1.267       .  A
O117       Al119   1.921       .  S
O118        C131   1.263       .  A
O118       Al128   1.902       .  S
Al119       O132   1.923       .  S
Al119       O129   1.941       .  S
Al119       O124   1.782       .  S
O120        C127   1.265       .  A
O120       Al128   1.907       .  S
O121        C130   1.262       .  A
O121       Al128   1.927       .  S
O122       Al128   1.902       .  S
O123        C130   1.258       .  A
O124       Al128   1.782       .  S
O125        C126   1.262       .  A
C126       C1043   1.468       .  S
C127       C1023   1.479       .  S
C130       C1073   1.469       .  S
C131        O132   1.266       .  A
C131       C1010   1.479       .  S
O133        C148   1.265       .  A
O133       Al141   1.931       .  S
C134        O144   1.261       .  A
C134        O135   1.259       .  A
C134        C980   1.461       .  S
O135       Al137   1.896       .  S
O136        C138   1.260       .  A
O136       Al137   1.887   1_556  S
Al137       O145   1.894       .  S
Al137       O147   1.894       .  S
Al137       O146   1.765       .  S
C138        O151   1.264       .  A
C138       C1003   1.475       .  S
O139        C149   1.266   1_556  A
O139       Al141   1.920   1_556  S
O140        C153   1.263       .  A
O140       Al150   1.899       .  S
Al141       O154   1.913       .  S
Al141       O151   1.930   1_554  S
Al141       O146   1.782       .  S
O142        C149   1.262       .  A
O142       Al150   1.899       .  S
O143        C152   1.262       .  A
O143       Al150   1.920       .  S
O144       Al150   1.911       .  S
O145        C152   1.260       .  A
O146       Al150   1.781       .  S
O147        C148   1.260       .  A
C148        C970   1.474       .  S
C149        C990   1.480   1_554  S
C152        C963   1.468       .  S
C153        O154   1.264       .  A
C153        C950   1.477       .  S
O155        C170   1.267       .  A
O155       Al163   1.934   1_554  S
C156        O166   1.258       .  A
C156        O157   1.259       .  A
C156        C933   1.462       .  S
O157       Al159   1.894       .  S
O158        C160   1.260       .  A
O158       Al159   1.897   1_545  S
Al159       O167   1.883       .  S
Al159       O169   1.900   1_556  S
Al159       O168   1.765       .  S
C160        O173   1.262       .  A
C160        C983   1.475       .  S
O161        C171   1.267   1_545  A
O161       Al163   1.916   1_545  S
O162        C175   1.260       .  A
O162       Al172   1.895       .  S
Al163       O176   1.908       .  S
Al163       O173   1.924   1_565  S
Al163       O168   1.784       .  S
O164        C171   1.265       .  A
O164       Al172   1.903       .  S
O165        C174   1.262       .  A
O165       Al172   1.919       .  S
O166       Al172   1.904       .  S
O167        C174   1.259       .  A
O168       Al172   1.784       .  S
O169        C170   1.262       .  A
C170        C940   1.475       .  S
C171       C1063   1.477   1_565  S
C174        C920   1.470       .  S
C175        O176   1.261       .  A
C175        C910   1.478       .  S
O177        C192   1.256       .  A
O177       Al185   1.863       .  S
C178        O188   1.260       .  A
C178        O179   1.269       .  A
C178        C880   1.471       .  S
O179       Al181   1.944       .  S
O180        C182   1.261       .  A
O180       Al181   1.892       .  S
Al181       O189   1.926       .  S
Al181       O191   1.931       .  S
Al181       O190   1.788       .  S
C182        O195   1.266       .  A
C182        C893   1.481       .  S
O183        C193   1.257       .  A
O183       Al185   1.904       .  S
O184        C197   1.259       .  A
O184       Al194   1.875   1_545  S
Al185       O198   1.947   1_565  S
Al185       O195   1.920       .  S
Al185       O190   1.783       .  S
O186        C193   1.259       .  A
O186       Al194   1.905       .  S
O187        C196   1.260       .  A
O187       Al194   1.909       .  S
O188       Al194   1.871       .  S
O189        C196   1.263       .  A
O190       Al194   1.764       .  S
O191        C192   1.265       .  A
C192       C1230   1.475       .  S
C193        C903   1.463       .  S
C196        C943   1.477       .  S
C197        O198   1.268       .  A
C197        C960   1.466       .  S
O199        C214   1.260       .  A
O199       Al207   1.883       .  S
C200        O210   1.259       .  A
C200        O201   1.270       .  A
C200        C900   1.472       .  S
O201       Al203   1.949       .  S
O202        C204   1.262       .  A
O202       Al203   1.888       .  S
Al203       O211   1.923       .  S
Al203       O213   1.930       .  S
Al203       O212   1.786       .  S
C204        O217   1.268       .  A
C204       C1143   1.481       .  S
O205        C215   1.260       .  A
O205       Al207   1.913   1_565  S
O206        C219   1.259       .  A
O206       Al216   1.878   1_556  S
Al207       O220   1.944   1_554  S
Al207       O217   1.929       .  S
Al207       O212   1.781       .  S
O208        C215   1.257       .  A
O208       Al216   1.898   1_565  S
O209        C218   1.260       .  A
O209       Al216   1.906       .  S
O210       Al216   1.876       .  S
O211        C218   1.262       .  A
O212       Al216   1.767       .  S
O213        C214   1.265       .  A
C214        C853   1.485       .  S
C215        C870   1.465       .  S
C218        C973   1.472       .  S
C219        O220   1.269       .  A
C219        C863   1.463       .  S
O221        C236   1.257       .  A
O221       Al229   1.863       .  S
C222        O232   1.259       .  A
C222        O223   1.269       .  A
C222        C873   1.476       .  S
O223       Al225   1.950       .  S
O224        C226   1.258       .  A
O224       Al225   1.881       .  S
Al225       O233   1.911       .  S
Al225       O235   1.937       .  S
Al225       O234   1.781       .  S
C226        O239   1.265       .  A
C226        C840   1.472       .  S
O227        C237   1.257       .  A
O227       Al229   1.894   1_554  S
O228        C241   1.259       .  A
O228       Al238   1.884       .  S
Al229       O242   1.938       .  S
Al229       O239   1.922       .  S
Al229       O234   1.782       .  S
O230        C237   1.262       .  A
O230       Al238   1.912   1_554  S
O231        C240   1.261       .  A
O231       Al238   1.914       .  S
O232       Al238   1.875       .  S
O233        C240   1.260       .  A
O234       Al238   1.763       .  S
O235        C236   1.268       .  A
C236        C820   1.479       .  S
C237        C883   1.457       .  S
C240        C830   1.469       .  S
C241        O242   1.266       .  A
C241        C923   1.460       .  S
O243        C258   1.266       .  A
O243       Al251   1.927   1_565  S
C244        O254   1.260       .  A
C244        O245   1.260       .  A
C244       C1000   1.466       .  S
O245       Al247   1.898       .  S
O246        C248   1.258       .  A
O246       Al247   1.885       .  S
Al247       O255   1.894       .  S
Al247       O257   1.905   1_545  S
Al247       O256   1.766       .  S
C248        O261   1.261       .  A
C248        C930   1.471       .  S
O249        C259   1.267       .  A
O249       Al251   1.924       .  S
O250        C263   1.263       .  A
O250       Al260   1.904       .  S
Al251       O264   1.914       .  S
Al251       O261   1.928       .  S
Al251       O256   1.786       .  S
O252        C259   1.265       .  A
O252       Al260   1.898       .  S
O253        C262   1.261       .  A
O253       Al260   1.913       .  S
O254       Al260   1.908       .  S
O255        C262   1.259       .  A
O256       Al260   1.782       .  S
O257        C258   1.262       .  A
C258        C833   1.471       .  S
C259        C810   1.483       .  S
C262        C860   1.471       .  S
C263        O264   1.263       .  A
C263       C1053   1.481       .  S
O265        C280   1.263       .  A
O265       Al273   1.913       .  S
C266        O276   1.260       .  A
C266        O267   1.263       .  A
C266        C793   1.462       .  S
O267       Al269   1.907       .  S
O268        C270   1.257       .  A
O268       Al269   1.886   1_655  S
Al269       O277   1.894       .  S
Al269       O279   1.905       .  S
Al269       O278   1.767       .  S
C270        O283   1.263       .  A
C270        C803   1.476       .  S
O271        C281   1.267   1_655  A
O271       Al273   1.918   1_655  S
O272        C285   1.264       .  A
O272       Al282   1.903       .  S
Al273       O286   1.921       .  S
Al273       O283   1.935   1_455  S
Al273       O278   1.785       .  S
O274        C281   1.264       .  A
O274       Al282   1.903       .  S
O275        C284   1.261       .  A
O275       Al282   1.920       .  S
O276       Al282   1.900       .  S
O277        C284   1.258       .  A
O278       Al282   1.781       .  S
O279        C280   1.263       .  A
C280        C783   1.464       .  S
C281       C1100   1.484   1_455  S
C284        C773   1.471       .  S
C285        O286   1.265       .  A
C285        C760   1.482       .  S
O287        C302   1.267       .  A
O287       Al295   1.941   1_455  S
C288        O298   1.261       .  A
C288        O289   1.257       .  A
C288        C740   1.468       .  S
O289       Al291   1.889       .  S
O290        C292   1.260       .  A
O290       Al291   1.896   1_554  S
Al291       O299   1.893       .  S
Al291       O301   1.899   1_655  S
Al291       O300   1.768       .  S
C292        O305   1.264       .  A
C292        C790   1.472       .  S
O293        C303   1.268       .  A
O293       Al295   1.924       .  S
O294        C307   1.262       .  A
O294       Al304   1.903       .  S
Al295       O308   1.907       .  S
Al295       O305   1.931   1_556  S
Al295       O300   1.785       .  S
O296        C303   1.264       .  A
O296       Al304   1.903       .  S
O297        C306   1.264       .  A
O297       Al304   1.922       .  S
O298       Al304   1.918       .  S
O299        C306   1.261       .  A
O300       Al304   1.784       .  S
O301        C302   1.260       .  A
C302        C750   1.479       .  S
C303        C850   1.479       .  S
C306        C730   1.475       .  S
C307        O308   1.261       .  A
C307       C1080   1.480       .  S
O309        C324   1.258       .  A
O309       Al317   1.873       .  S
C310        O320   1.259       .  A
C310        O311   1.271       .  A
C310        C703   1.469       .  S
O311       Al313   1.949       .  S
O312        C314   1.260       .  A
O312       Al313   1.888       .  S
Al313       O321   1.926       .  S
Al313       O323   1.934       .  S
Al313       O322   1.787       .  S
C314        O327   1.268       .  A
C314        C710   1.486       .  S
O315        C325   1.258       .  A
O315       Al317   1.912       .  S
O316        C329   1.260   1_556  A
O316       Al326   1.876       .  S
Al317       O330   1.951   1_556  S
Al317       O327   1.929       .  S
Al317       O322   1.780       .  S
O318        C325   1.258       .  A
O318       Al326   1.903       .  S
O319        C328   1.259       .  A
O319       Al326   1.911       .  S
O320       Al326   1.866       .  S
O321        C328   1.261       .  A
O322       Al326   1.767       .  S
O323        C324   1.265       .  A
C324        C993   1.480       .  S
C325        C723   1.466       .  S
C328        C753   1.477       .  S
C329        O330   1.271       .  A
C329        C770   1.467       .  S
O331        C346   1.257       .  A
O331       Al339   1.859       .  S
C332        O342   1.260       .  A
C332        O333   1.269       .  A
C332        C720   1.475       .  S
O333       Al335   1.948       .  S
O334        C336   1.258       .  A
O334       Al335   1.882       .  S
Al335       O343   1.904       .  S
Al335       O345   1.939       .  S
Al335       O344   1.784       .  S
C336        O349   1.265       .  A
C336        C913   1.470   1_554  S
O337        C347   1.260       .  A
O337       Al339   1.904   1_556  S
O338        C351   1.260       .  A
O338       Al348   1.889   1_655  S
Al339       O352   1.943   1_455  S
Al339       O349   1.923       .  S
Al339       O344   1.780       .  S
O340        C347   1.262       .  A
O340       Al348   1.910   1_556  S
O341        C350   1.260       .  A
O341       Al348   1.911       .  S
O342       Al348   1.878       .  S
O343        C350   1.257       .  A
O344       Al348   1.764       .  S
O345        C346   1.268       .  A
C346       C1183   1.477       .  S
C347        C693   1.461       .  S
C350        C780   1.464       .  S
C351        O352   1.267       .  A
C351        C680   1.466       .  S
O353        C368   1.258       .  A
O353       Al361   1.867       .  S
C354        O364   1.258       .  A
C354        O355   1.268       .  A
C354        C690   1.473       .  S
O355       Al357   1.948       .  S
O356        C358   1.261       .  A
O356       Al357   1.892       .  S
Al357       O365   1.916       .  S
Al357       O367   1.941       .  S
Al357       O366   1.786       .  S
C358        O371   1.267       .  A
C358       C1013   1.481       .  S
O359        C369   1.256       .  A
O359       Al361   1.892   1_455  S
O360        C373   1.257       .  A
O360       Al370   1.877       .  S
Al361       O374   1.949       .  S
Al361       O371   1.926       .  S
Al361       O366   1.781       .  S
O362        C369   1.261       .  A
O362       Al370   1.908   1_455  S
O363        C372   1.263       .  A
O363       Al370   1.912       .  S
O364       Al370   1.873       .  S
O365        C372   1.262       .  A
O366       Al370   1.764       .  S
O367        C368   1.268       .  A
C368        C660   1.482       .  S
C369        C700   1.457       .  S
C372        C670   1.474       .  S
C373        O374   1.268       .  A
C373        C733   1.466       .  S
O375        C390   1.266       .  A
O375       Al383   1.936   1_556  S
C376        O386   1.260       .  A
C376        O377   1.259       .  A
C376        C800   1.466       .  S
O377       Al379   1.896       .  S
O378        C380   1.260       .  A
O378       Al379   1.885       .  S
Al379       O387   1.890       .  S
Al379       O389   1.893   1_554  S
Al379       O388   1.765       .  S
C380        O393   1.263       .  A
C380        C743   1.477       .  S
O381        C391   1.267       .  A
O381       Al383   1.920       .  S
O382        C395   1.262       .  A
O382       Al392   1.898       .  S
Al383       O396   1.909       .  S
Al383       O393   1.934       .  S
Al383       O388   1.788       .  S
O384        C391   1.264       .  A
O384       Al392   1.902       .  S
O385        C394   1.264       .  A
O385       Al392   1.927       .  S
O386       Al392   1.912       .  S
O387        C394   1.260       .  A
O388       Al392   1.785       .  S
O389        C390   1.260       .  A
C390        C673   1.474       .  S
C391        C653   1.483       .  S
C394        C683   1.475       .  S
C395        O396   1.262       .  A
C395        C843   1.476       .  S
O397        C412   1.258       .  A
O397       Al405   1.874       .  S
C398        O408   1.258       .  A
C398        O399   1.270       .  A
C398        C623   1.477       .  S
O399       Al401   1.956       .  S
O400        C402   1.261       .  A
O400       Al401   1.882       .  S
Al401       O409   1.912       .  S
Al401       O411   1.941       .  S
Al401       O410   1.790       .  S
C402        O415   1.269       .  A
C402        C953   1.474       .  S
O403        C413   1.258       .  A
O403       Al405   1.905       .  S
O404        C417   1.258       .  A
O404       Al414   1.881       .  S
Al405       O418   1.948       .  S
Al405       O415   1.932       .  S
Al405       O410   1.778       .  S
O406        C413   1.259       .  A
O406       Al414   1.902       .  S
O407        C416   1.263       .  A
O407       Al414   1.909       .  S
O408       Al414   1.874       .  S
O409        C416   1.261       .  A
O410       Al414   1.764       .  S
O411        C412   1.266       .  A
C412        C650   1.481       .  S
C413        C640   1.465       .  S
C416        C610   1.468       .  S
C417        O418   1.268       .  A
C417        C633   1.469       .  S
O419        C434   1.265       .  A
O419       Al427   1.923       .  S
C420        O430   1.260       .  A
C420        O421   1.260       .  A
C420        C580   1.464       .  S
O421       Al423   1.896       .  S
O422        C424   1.257       .  A
O422       Al423   1.879       .  S
Al423       O431   1.893       .  S
Al423       O433   1.908       .  S
Al423       O432   1.765       .  S
C424        O437   1.264       .  A
C424        C603   1.475       .  S
O425        C435   1.266       .  A
O425       Al427   1.912       .  S
O426        C439   1.264       .  A
O426       Al436   1.907       .  S
Al427       O440   1.914       .  S
Al427       O437   1.938       .  S
Al427       O432   1.782       .  S
O428        C435   1.267       .  A
O428       Al436   1.917       .  S
O429        C438   1.266       .  A
O429       Al436   1.936       .  S
O430       Al436   1.908       .  S
O431        C438   1.260       .  A
O432       Al436   1.780       .  S
O433        C434   1.262       .  A
C434        C590   1.470       .  S
C435       C1033   1.484       .  S
C438        C630   1.480       .  S
C439        O440   1.264       .  A
C439        C890   1.478       .  S
O441        C456   1.258       .  A
O441       Al449   1.868       .  S
C442        O452   1.258       .  A
C442        O443   1.272       .  A
C442        C643   1.475       .  S
O443       Al445   1.960       .  S
O444        C446   1.259       .  A
O444       Al445   1.888       .  S
Al445       O453   1.919       .  S
Al445       O455   1.946       .  S
Al445       O454   1.785       .  S
C446        O459   1.266       .  A
C446        C763   1.477       .  S
O447        C457   1.259       .  A
O447       Al449   1.905       .  S
O448        C461   1.259       .  A
O448       Al458   1.880       .  S
Al449       O462   1.949       .  S
Al449       O459   1.926       .  S
Al449       O454   1.782       .  S
O450        C457   1.260       .  A
O450       Al458   1.906       .  S
O451        C460   1.259       .  A
O451       Al458   1.911       .  S
O452       Al458   1.862       .  S
O453        C460   1.260       .  A
O454       Al458   1.766       .  S
O455        C456   1.269       .  A
C456       C1020   1.485       .  S
C457        C570   1.464       .  S
C460        C593   1.473       .  S
C461        O462   1.269       .  A
C461        C560   1.464       .  S
O463        C478   1.266       .  A
O463       Al471   1.925       .  S
C464        O474   1.260       .  A
C464        O465   1.259       .  A
C464        C600   1.468       .  S
O465       Al467   1.891       .  S
O466        C468   1.259       .  A
O466       Al467   1.896       .  S
Al467       O475   1.889       .  S
Al467       O477   1.903       .  S
Al467       O476   1.764       .  S
C468        O481   1.263       .  A
C468        C550   1.474       .  S
O469        C479   1.264       .  A
O469       Al471   1.902       .  S
O470        C483   1.261       .  A
O470       Al480   1.907       .  S
Al471       O484   1.915       .  S
Al471       O481   1.933       .  S
Al471       O476   1.783       .  S
O472        C479   1.266       .  A
O472       Al480   1.910       .  S
O473        C482   1.263       .  A
O473       Al480   1.921       .  S
O474       Al480   1.913       .  S
O475        C482   1.260       .  A
O476       Al480   1.784       .  S
O477        C478   1.263       .  A
C478        C540   1.472       .  S
C479        C823   1.460       .  S
C482        C563   1.474       .  S
C483        O484   1.262       .  A
C483        C713   1.475       .  S
O485        C500   1.259       .  A
O485       Al493   1.867       .  S
C486        O496   1.258       .  A
C486        O487   1.273       .  A
C486        C573   1.481       .  S
O487       Al489   1.960       .  S
O488        C490   1.259       .  A
O488       Al489   1.878       .  S
Al489       O497   1.915       .  S
Al489       O499   1.948       .  S
Al489       O498   1.786       .  S
C490        O503   1.269       .  A
C490       C1190   1.480       .  S
O491        C501   1.258       .  A
O491       Al493   1.905       .  S
O492        C505   1.257       .  A
O492       Al502   1.875       .  S
Al493       O506   1.964       .  S
Al493       O503   1.935       .  S
Al493       O498   1.777       .  S
O494        C501   1.260       .  A
O494       Al502   1.910       .  S
O495        C504   1.260       .  A
O495       Al502   1.905       .  S
O496       Al502   1.864       .  S
O497        C504   1.260       .  A
O498       Al502   1.762       .  S
O499        C500   1.268       .  A
C500        C813   1.478       .  S
C501        C620   1.463       .  S
C504        C543   1.469       .  S
C505        O506   1.272       .  A
C505        C533   1.469       .  S
O507        C522   1.264       .  A
O507       Al515   1.921       .  S
C508        O518   1.259       .  A
C508        O509   1.260       .  A
C508        C553   1.462       .  S
O509       Al511   1.899       .  S
O510        C512   1.260       .  A
O510       Al511   1.890       .  S
Al511       O519   1.897       .  S
Al511       O521   1.901       .  S
Al511       O520   1.765       .  S
C512        O525   1.263       .  A
C512        C583   1.475       .  S
O513        C523   1.264       .  A
O513       Al515   1.908       .  S
O514        C527   1.263       .  A
O514       Al524   1.898       .  S
Al515       O528   1.913       .  S
Al515       O525   1.929       .  S
Al515       O520   1.784       .  S
O516        C523   1.265       .  A
O516       Al524   1.910       .  S
O517        C526   1.265       .  A
O517       Al524   1.930       .  S
O518       Al524   1.907       .  S
O519        C526   1.261       .  A
O520       Al524   1.780       .  S
O521        C522   1.262       .  A
C522        C613   1.471       .  S
C523        C663   1.472       .  S
C526        C530   1.478       .  S
C527        O528   1.263       .  A
C527       C1123   1.479       .  S
C529        C530   1.405       .  A
C529        C534   1.400       .  A
C529        H536   1.083       .  S
C530        C531   1.406       .  A
C531        C532   1.400       .  A
C531        F538   1.358       .  S
C532        C533   1.403       .  A
C532        H537   1.083       .  S
C533        C534   1.405       .  A
C534        F535   1.358       .  S
C539        C540   1.406       .  A
C539        C544   1.407       .  A
C539        H546   1.083       .  S
C540        C541   1.405       .  A
C541        C542   1.390       .  A
C541        F548   1.358       .  S
C542        C543   1.400       .  A
C542        H547   1.084       .  S
C543        C544   1.406       .  A
C544        F545   1.357       .  S
C549        C550   1.406       .  A
C549        C554   1.400       .  A
C549        H556   1.083       .  S
C550        C551   1.404       .  A
C551        C552   1.395       .  A
C551        F558   1.355       .  S
C552        C553   1.400       .  A
C552        H557   1.083       .  S
C553        C554   1.402       .  A
C554        F555   1.357       .  S
C559        C560   1.401       .  A
C559        C564   1.397       .  A
C559        H566   1.084       .  S
C560        C561   1.403       .  A
C561        C562   1.399       .  A
C561        F568   1.356       .  S
C562        C563   1.405       .  A
C562        H567   1.083       .  S
C563        C564   1.407       .  A
C564        F565   1.358       .  S
C569        C570   1.396       .  A
C569        C574   1.391       .  A
C569        H576   1.084       .  S
C570        C571   1.405       .  A
C571        C572   1.404       .  A
C571        F578   1.357       .  S
C572        C573   1.406       .  A
C572        H577   1.083       .  S
C573        C574   1.411       .  A
C574        F575   1.357       .  S
C579        C580   1.401       .  A
C579        C584   1.393       .  A
C579        H586   1.083       .  S
C580        C581   1.401       .  A
C581        C582   1.401       .  A
C581        F588   1.357       .  S
C582        C583   1.408       .  A
C582        H587   1.083       .  S
C583        C584   1.405       .  A
C584        F585   1.358       .  S
C589        C590   1.402       .  A
C589        C594   1.398       .  A
C589        H596   1.084       .  S
C590        C591   1.406       .  A
C591        C592   1.404       .  A
C591        F598   1.357       .  S
C592        C593   1.403       .  A
C592        H597   1.083       .  S
C593        C594   1.404       .  A
C594        F595   1.356       .  S
C599        C600   1.403       .  A
C599        C604   1.404       .  A
C599        H606   1.083       .  S
C600        C601   1.402       .  A
C601        C602   1.390       .  A
C601        F608   1.355       .  S
C602        C603   1.402       .  A
C602        H607   1.083       .  S
C603        C604   1.409       .  A
C604        F605   1.357       .  S
C609        C610   1.400       .  A
C609        C614   1.390       .  A
C609        H616   1.083       .  S
C610        C611   1.405       .  A
C611        C612   1.407       .  A
C611        F618   1.357       .  S
C612        C613   1.406       .  A
C612        H617   1.083       .  S
C613        C614   1.405       .  A
C614        F615   1.359       .  S
C619        C620   1.396       .  A
C619        C624   1.393       .  A
C619        H626   1.083       .  S
C620        C621   1.405       .  A
C621        C622   1.403       .  A
C621        F628   1.357       .  S
C622        C623   1.404       .  A
C622        H627   1.083       .  S
C623        C624   1.408       .  A
C624        F625   1.356       .  S
C629        C630   1.406       .  A
C629        C634   1.401       .  A
C629        H636   1.083       .  S
C630        C631   1.408       .  A
C631        C632   1.400       .  A
C631        F638   1.357       .  S
C632        C633   1.402       .  A
C632        H637   1.084       .  S
C633        C634   1.403       .  A
C634        F635   1.357       .  S
C639        C640   1.405       .  A
C639        C644   1.403       .  A
C639        H646   1.084       .  S
C640        C641   1.399       .  A
C641        C642   1.393       .  A
C641        F648   1.356       .  S
C642        C643   1.406       .  A
C642        H647   1.083       .  S
C643        C644   1.405       .  A
C644        F645   1.357       .  S
C649        C650   1.402       .  A
C649        C654   1.390       .  A
C649        H656   1.084       .  S
C650        C651   1.410       .  A
C651        C652   1.407       .  A
C651        F658   1.357       .  S
C652        C653   1.407       .  A
C652        H657   1.083       .  S
C653        C654   1.409       .  A
C654        F655   1.358       .  S
C659        C660   1.406       .  A
C659        C664   1.390       .  A
C659        H666   1.083       .  S
C660        C661   1.410       .  A
C661        C662   1.404       .  A
C661        F668   1.357       .  S
C662        C663   1.405       .  A
C662        H667   1.083       .  S
C663        C664   1.403       .  A
C664        F665   1.358       .  S
C669        C670   1.406       .  A
C669        C674   1.409       .  A
C669        H676   1.083       .  S
C670        C671   1.403       .  A
C671        C672   1.393       .  A
C671        F678   1.357       .  S
C672        C673   1.403       .  A
C672        H677   1.084       .  S
C673        C674   1.407       .  A
C674        F675   1.357       .  S
C679        C680   1.401       .  A
C679        C684   1.396       .  A
C679        H686   1.083   1_554  S
C680        C681   1.403       .  A
C681        C682   1.400       .  A
C681        F688   1.357       .  S
C682        C683   1.406       .  A
C682        H687   1.083       .  S
C683        C684   1.407       .  A
C684        F685   1.358   1_554  S
C689        C690   1.406   1_455  A
C689        C694   1.395       .  A
C689        H696   1.083       .  S
C690        C691   1.405       .  A
C691        C692   1.400       .  A
C691        F698   1.358       .  S
C692        C693   1.404   1_655  A
C692        H697   1.083       .  S
C693        C694   1.399       .  A
C694        F695   1.357       .  S
C699        C700   1.402       .  A
C699        C704   1.398       .  A
C699        H706   1.083       .  S
C700        C701   1.398       .  A
C701        C702   1.392       .  A
C701        F708   1.357       .  S
C702        C703   1.406       .  A
C702        H707   1.083       .  S
C703        C704   1.404       .  A
C704        F705   1.357       .  S
C709        C710   1.405       .  A
C709        C714   1.398       .  A
C709        H716   1.083       .  S
C710        C711   1.413       .  A
C711        C712   1.401       .  A
C711        F718   1.357       .  S
C712        C713   1.401       .  A
C712        H717   1.083       .  S
C713        C714   1.406       .  A
C714        F715   1.358       .  S
C719        C720   1.405   1_556  A
C719        C724   1.396       .  A
C719        H726   1.083       .  S
C720        C721   1.406       .  A
C721        C722   1.402       .  A
C721        F728   1.358       .  S
C722        C723   1.404   1_554  A
C722        H727   1.082       .  S
C723        C724   1.400       .  A
C724        F725   1.357       .  S
C729        C730   1.404       .  A
C729        C734   1.397       .  A
C729        H736   1.084   1_655  S
C730        C731   1.408       .  A
C731        C732   1.399       .  A
C731        F738   1.358       .  S
C732        C733   1.402       .  A
C732        H737   1.083       .  S
C733        C734   1.403       .  A
C734        F735   1.356   1_655  S
C739        C740   1.403       .  A
C739        C744   1.406       .  A
C739        H746   1.083       .  S
C740        C741   1.401   1_556  A
C741        C742   1.389       .  A
C741        F748   1.353       .  S
C742        C743   1.400       .  A
C742        H747   1.081       .  S
C743        C744   1.411   1_554  A
C744        F745   1.357       .  S
C749        C750   1.407       .  A
C749        C754   1.411       .  A
C749        H756   1.083       .  S
C750        C751   1.406       .  A
C751        C752   1.394       .  A
C751        F758   1.358   1_556  S
C752        C753   1.401       .  A
C752        H757   1.083       .  S
C753        C754   1.407       .  A
C754        F755   1.357       .  S
C759        C760   1.405       .  A
C759        C764   1.400       .  A
C759        H766   1.083       .  S
C760        C761   1.410       .  A
C761        C762   1.397       .  A
C761        F768   1.358       .  S
C762        C763   1.402       .  A
C762        H767   1.083       .  S
C763        C764   1.408       .  A
C764        F765   1.358       .  S
C769        C770   1.402       .  A
C769        C774   1.397       .  A
C769        H776   1.083       .  S
C770        C771   1.404       .  A
C771        C772   1.398       .  A
C771        F778   1.355       .  S
C772        C773   1.402       .  A
C772        H777   1.083       .  S
C773        C774   1.406       .  A
C774        F775   1.356       .  S
C779        C780   1.401       .  A
C779        C784   1.399       .  A
C779        H786   1.084       .  S
C780        C781   1.403       .  A
C781        C782   1.398       .  A
C781        F788   1.357   1_455  S
C782        C783   1.402       .  A
C782        H787   1.084   1_455  S
C783        C784   1.405       .  A
C784        F785   1.358       .  S
C789        C790   1.404   1_455  A
C789        C794   1.398       .  A
C789        H796   1.083       .  S
C790        C791   1.404       .  A
C791        C792   1.396       .  A
C791        F798   1.354       .  S
C792        C793   1.400   1_655  A
C792        H797   1.084       .  S
C793        C794   1.402       .  A
C794        F795   1.356       .  S
C799        C800   1.402       .  A
C799        C804   1.403       .  A
C799        H806   1.083       .  S
C800        C801   1.402       .  A
C801        C802   1.394       .  A
C801        F808   1.356       .  S
C802        C803   1.403       .  A
C802        H807   1.084       .  S
C803        C804   1.410       .  A
C804        F805   1.357       .  S
C809        C810   1.405       .  A
C809        C814   1.387       .  A
C809        H816   1.083       .  S
C810        C811   1.410       .  A
C811        C812   1.409       .  A
C811        F818   1.357       .  S
C812        C813   1.408       .  A
C812        H817   1.083       .  S
C813        C814   1.404       .  A
C814        F815   1.358       .  S
C819        C820   1.407       .  A
C819        C824   1.401       .  A
C819        H826   1.083       .  S
C820        C821   1.412       .  A
C821        C822   1.389       .  A
C821        F828   1.358       .  S
C822        C823   1.396       .  A
C822        H827   1.084       .  S
C823        C824   1.403       .  A
C824        F825   1.357       .  S
C829        C830   1.401       .  A
C829        C834   1.398       .  A
C829        H836   1.084       .  S
C830        C831   1.405       .  A
C831        C832   1.403       .  A
C831        F838   1.357       .  S
C832        C833   1.404       .  A
C832        H837   1.083       .  S
C833        C834   1.404       .  A
C834        F835   1.356       .  S
C839        C840   1.402       .  A
C839        C844   1.395   1_556  A
C839        H846   1.083       .  S
C840        C841   1.408   1_556  A
C841        C842   1.397       .  A
C841        F848   1.358       .  S
C842        C843   1.403       .  A
C842        H847   1.083       .  S
C843        C844   1.410       .  A
C844        F845   1.358       .  S
C849        C850   1.404   1_554  A
C849        C854   1.406       .  A
C849        H856   1.083       .  S
C850        C851   1.407       .  A
C851        C852   1.392       .  A
C851        F858   1.358       .  S
C852        C853   1.404   1_556  A
C852        H857   1.083       .  S
C853        C854   1.412       .  A
C854        F855   1.357       .  S
C859        C860   1.405       .  A
C859        C864   1.397       .  A
C859        H866   1.084       .  S
C860        C861   1.405       .  A
C861        C862   1.397       .  A
C861        F868   1.358   1_545  S
C862        C863   1.402       .  A
C862        H867   1.084   1_545  S
C863        C864   1.403       .  A
C864        F865   1.357       .  S
C869        C870   1.405   1_556  A
C869        C874   1.403       .  A
C869        H876   1.084       .  S
C870        C871   1.401       .  A
C871        C872   1.395       .  A
C871        F878   1.357       .  S
C872        C873   1.405   1_554  A
C872        H877   1.084       .  S
C873        C874   1.406       .  A
C874        F875   1.357       .  S
C879        C880   1.403       .  A
C879        C884   1.400       .  A
C879        H886   1.083       .  S
C880        C881   1.407       .  A
C881        C882   1.392       .  A
C881        F888   1.355       .  S
C882        C883   1.395       .  A
C882        H887   1.084       .  S
C883        C884   1.405       .  A
C884        F885   1.357       .  S
C889        C890   1.405       .  A
C889        C894   1.396       .  A
C889        H896   1.083       .  S
C890        C891   1.405       .  A
C891        C892   1.400       .  A
C891        F898   1.357       .  S
C892        C893   1.407       .  A
C892        H897   1.083       .  S
C893        C894   1.407       .  A
C894        F895   1.358       .  S
C899        C900   1.406   1_565  A
C899        C904   1.396       .  A
C899        H906   1.081       .  S
C900        C901   1.405       .  A
C901        C902   1.400       .  A
C901        F908   1.358       .  S
C902        C903   1.403   1_545  A
C902        H907   1.078       .  S
C903        C904   1.399       .  A
C904        F905   1.355       .  S
C909        C910   1.405       .  A
C909        C914   1.397       .  A
C909        H916   1.083       .  S
C910        C911   1.410       .  A
C911        C912   1.395       .  A
C911        F918   1.358       .  S
C912        C913   1.401       .  A
C912        H917   1.084   1_556  S
C913        C914   1.405       .  A
C914        F915   1.358       .  S
C919        C920   1.405       .  A
C919        C924   1.398       .  A
C919        H926   1.083       .  S
C920        C921   1.406       .  A
C921        C922   1.393       .  A
C921        F928   1.358   1_556  S
C922        C923   1.400       .  A
C922        H927   1.083   1_556  S
C923        C924   1.402       .  A
C924        F925   1.357       .  S
C929        C930   1.401       .  A
C929        C934   1.391       .  A
C929        H936   1.081       .  S
C930        C931   1.408   1_545  A
C931        C932   1.402       .  A
C931        F938   1.357       .  S
C932        C933   1.402       .  A
C932        H937   1.083       .  S
C933        C934   1.400   1_565  A
C934        F935   1.355       .  S
C939        C940   1.401       .  A
C939        C944   1.391       .  A
C939        H946   1.084   1_565  S
C940        C941   1.408       .  A
C941        C942   1.411       .  A
C941        F948   1.357       .  S
C942        C943   1.407       .  A
C942        H947   1.083       .  S
C943        C944   1.403       .  A
C944        F945   1.355   1_565  S
C949        C950   1.404       .  A
C949        C954   1.398       .  A
C949        H956   1.083       .  S
C950        C951   1.410       .  A
C951        C952   1.395       .  A
C951        F958   1.358       .  S
C952        C953   1.401       .  A
C952        H957   1.083       .  S
C953        C954   1.408       .  A
C954        F955   1.358       .  S
C959        C960   1.402       .  A
C959        C964   1.396       .  A
C959        H966   1.083       .  S
C960        C961   1.403       .  A
C961        C962   1.397       .  A
C961        F968   1.354       .  S
C962        C963   1.402       .  A
C962        H967   1.084       .  S
C963        C964   1.405       .  A
C964        F965   1.358       .  S
C969        C970   1.407       .  A
C969        C974   1.409       .  A
C969        H976   1.083       .  S
C970        C971   1.405       .  A
C971        C972   1.391       .  A
C971        F978   1.358   1_554  S
C972        C973   1.401       .  A
C972        H977   1.083   1_554  S
C973        C974   1.406       .  A
C974        F975   1.357       .  S
C979        C980   1.401   1_556  A
C979        C984   1.394       .  A
C979        H986   1.084       .  S
C980        C981   1.401       .  A
C981        C982   1.400       .  A
C981        F988   1.357       .  S
C982        C983   1.407   1_554  A
C982        H987   1.083       .  S
C983        C984   1.404       .  A
C984        F985   1.355       .  S
C989        C990   1.406       .  A
C989        C994   1.405       .  A
C989        H996   1.083       .  S
C990        C991   1.408   1_556  A
C991        C992   1.391   1_554  A
C991        F998   1.358       .  S
C992        C993   1.403       .  A
C992        H997   1.084   1_556  S
C993        C994   1.409       .  A
C994        F995   1.357       .  S
C999       C1000   1.401       .  A
C999       C1004   1.402       .  A
C999       H1006   1.083       .  S
C1000      C1001   1.402       .  A
C1001      C1002   1.393       .  A
C1001      F1008   1.356       .  S
C1002      C1003   1.402       .  A
C1002      H1007   1.083       .  S
C1003      C1004   1.410       .  A
C1004      F1005   1.357       .  S
C1009      C1010   1.405       .  A
C1009      C1014   1.396   1_455  A
C1009      H1016   1.083       .  S
C1010      C1011   1.407       .  A
C1011      C1012   1.400       .  A
C1011      F1018   1.358       .  S
C1012      C1013   1.407   1_455  A
C1012      H1017   1.083   1_455  S
C1013      C1014   1.407       .  A
C1014      F1015   1.357       .  S
C1019      C1020   1.409       .  A
C1019      C1024   1.407       .  A
C1019      H1026   1.083       .  S
C1020      C1021   1.409       .  A
C1021      C1022   1.389       .  A
C1021      F1028   1.358       .  S
C1022      C1023   1.402       .  A
C1022      H1027   1.084       .  S
C1023      C1024   1.408       .  A
C1024      F1025   1.357       .  S
C1029      C1030   1.405       .  A
C1029      C1034   1.405       .  A
C1029      H1036   1.083       .  S
C1030      C1031   1.407       .  A
C1031      C1032   1.393       .  A
C1031      F1038   1.358       .  S
C1032      C1033   1.405       .  A
C1032      H1037   1.083       .  S
C1033      C1034   1.410       .  A
C1034      F1035   1.357       .  S
C1039      C1040   1.402       .  A
C1039      C1044   1.399       .  A
C1039      H1046   1.083       .  S
C1040      C1041   1.404       .  A
C1041      C1042   1.402       .  A
C1041      F1048   1.358       .  S
C1042      C1043   1.404       .  A
C1042      H1047   1.084       .  S
C1043      C1044   1.404       .  A
C1044      F1045   1.357       .  S
C1049      C1050   1.406   1_545  A
C1049      C1054   1.400       .  A
C1049      H1056   1.083       .  S
C1050      C1051   1.405       .  A
C1051      C1052   1.396   1_565  A
C1051      F1058   1.358       .  S
C1052      C1053   1.407       .  A
C1052      H1057   1.083       .  S
C1053      C1054   1.407       .  A
C1054      F1055   1.357       .  S
C1059      C1060   1.405   1_565  A
C1059      C1064   1.387       .  A
C1059      H1066   1.083       .  S
C1060      C1061   1.409       .  A
C1061      C1062   1.407       .  A
C1061      F1068   1.357       .  S
C1062      C1063   1.407       .  A
C1062      H1067   1.083       .  S
C1063      C1064   1.405   1_545  A
C1064      F1065   1.358       .  S
C1069      C1070   1.404       .  A
C1069      C1074   1.397       .  A
C1069      H1076   1.084       .  S
C1070      C1071   1.405       .  A
C1071      C1072   1.399       .  A
C1071      F1078   1.356   1_455  S
C1072      C1073   1.403       .  A
C1072      H1077   1.084   1_455  S
C1073      C1074   1.405       .  A
C1074      F1075   1.357       .  S
C1079      C1080   1.404       .  A
C1079      C1084   1.398       .  A
C1079      H1086   1.083       .  S
C1080      C1081   1.411       .  A
C1081      C1082   1.397       .  A
C1081      F1088   1.358       .  S
C1082      C1083   1.402       .  A
C1082      H1087   1.084   1_655  S
C1083      C1084   1.407       .  A
C1084      F1085   1.357       .  S
C1089      C1090   1.404       .  A
C1089      C1094   1.401       .  A
C1089      H1096   1.083       .  S
C1090      C1091   1.409   1_565  A
C1091      C1092   1.390       .  A
C1091      F1098   1.355       .  S
C1092      C1093   1.395       .  A
C1092      H1097   1.084       .  S
C1093      C1094   1.404   1_545  A
C1094      F1095   1.357       .  S
C1099      C1100   1.408   1_455  A
C1099      C1104   1.390       .  A
C1099      H1106   1.083       .  S
C1100      C1101   1.410       .  A
C1101      C1102   1.405       .  A
C1101      F1108   1.357       .  S
C1102      C1103   1.405       .  A
C1102      H1107   1.083       .  S
C1103      C1104   1.402   1_655  A
C1104      F1105   1.358       .  S
C1109      C1110   1.405       .  A
C1109      C1114   1.396       .  A
C1109      H1116   1.083       .  S
C1110      C1111   1.404       .  A
C1111      C1112   1.401       .  A
C1111      F1118   1.358       .  S
C1112      C1113   1.404       .  A
C1112      H1117   1.082       .  S
C1113      C1114   1.400       .  A
C1114      F1115   1.355       .  S
C1119      C1120   1.402       .  A
C1119      C1124   1.396       .  A
C1119      H1126   1.083       .  S
C1120      C1121   1.406       .  A
C1121      C1122   1.397       .  A
C1121      F1128   1.358       .  S
C1122      C1123   1.404       .  A
C1122      H1127   1.083       .  S
C1123      C1124   1.410       .  A
C1124      F1125   1.358       .  S
C1129      C1130   1.408   1_655  A
C1129      C1134   1.396       .  A
C1129      H1136   1.083       .  S
C1130      C1131   1.406       .  A
C1131      C1132   1.403       .  A
C1131      F1138   1.357       .  S
C1132      C1133   1.404   1_455  A
C1132      H1137   1.084       .  S
C1133      C1134   1.400       .  A
C1134      F1135   1.358       .  S
C1139      C1140   1.404       .  A
C1139      C1144   1.398       .  A
C1139      H1146   1.083       .  S
C1140      C1141   1.408       .  A
C1141      C1142   1.398       .  A
C1141      F1148   1.358       .  S
C1142      C1143   1.405   1_565  A
C1142      H1147   1.083       .  S
C1143      C1144   1.409   1_545  A
C1144      F1145   1.358       .  S
C1149      C1150   1.404       .  A
C1149      C1154   1.395       .  A
C1149      H1156   1.084       .  S
C1150      C1151   1.404       .  A
C1151      C1152   1.395       .  A
C1151      F1158   1.358   1_565  S
C1152      C1153   1.401       .  A
C1152      H1157   1.082   1_565  S
C1153      C1154   1.402       .  A
C1154      F1155   1.358       .  S
C1159      C1160   1.399   1_455  A
C1159      C1164   1.394       .  A
C1159      H1166   1.083       .  S
C1160      C1161   1.404       .  A
C1161      C1162   1.404       .  A
C1161      F1168   1.357       .  S
C1162      C1163   1.407   1_655  A
C1162      H1167   1.083       .  S
C1163      C1164   1.406       .  A
C1164      F1165   1.355       .  S
C1169      C1170   1.400       .  A
C1169      C1174   1.395       .  A
C1169      H1176   1.084   1_655  S
C1170      C1171   1.406       .  A
C1171      C1172   1.404       .  A
C1171      F1178   1.357       .  S
C1172      C1173   1.403       .  A
C1172      H1177   1.083       .  S
C1173      C1174   1.403       .  A
C1174      F1175   1.356       .  S
C1179      C1180   1.399       .  A
C1179      C1184   1.384       .  A
C1179      H1186   1.084       .  S
C1180      C1181   1.406   1_655  A
C1181      C1182   1.404       .  A
C1181      F1188   1.357       .  S
C1182      C1183   1.408       .  A
C1182      H1187   1.083       .  S
C1183      C1184   1.409   1_455  A
C1184      F1185   1.358       .  S
C1189      C1190   1.402       .  A
C1189      C1194   1.395       .  A
C1189      H1196   1.083       .  S
C1190      C1191   1.412       .  A
C1191      C1192   1.399       .  A
C1191      F1198   1.358       .  S
C1192      C1193   1.402       .  A
C1192      H1197   1.083       .  S
C1193      C1194   1.410       .  A
C1194      F1195   1.358       .  S
C1199      C1200   1.406       .  A
C1199      C1204   1.398       .  A
C1199      H1206   1.083       .  S
C1200      C1201   1.406       .  A
C1201      C1202   1.395       .  A
C1201      F1208   1.356       .  S
C1202      C1203   1.401       .  A
C1202      H1207   1.084       .  S
C1203      C1204   1.402       .  A
C1204      F1205   1.357       .  S
C1209      C1210   1.402       .  A
C1209      C1214   1.399       .  A
C1209      H1216   1.083       .  S
C1210      C1211   1.403       .  A
C1211      C1212   1.399       .  A
C1211      F1218   1.356   1_545  S
C1212      C1213   1.402       .  A
C1212      H1217   1.084       .  S
C1213      C1214   1.403       .  A
C1214      F1215   1.358       .  S
C1219      C1220   1.403       .  A
C1219      C1224   1.405       .  A
C1219      H1226   1.083       .  S
C1220      C1221   1.403   1_545  A
C1221      C1222   1.391       .  A
C1221      F1228   1.357       .  S
C1222      C1223   1.403       .  A
C1222      H1227   1.083       .  S
C1223      C1224   1.409   1_565  A
C1224      F1225   1.357       .  S
C1229      C1230   1.407       .  A
C1229      C1234   1.402       .  A
C1229      H1236   1.083       .  S
C1230      C1231   1.407   1_565  A
C1231      C1232   1.387       .  A
C1231      F1238   1.358       .  S
C1232      C1233   1.402   1_545  A
C1232      H1237   1.084       .  S
C1233      C1234   1.405       .  A
C1234      F1235   1.357       .  S
C1239      C1240   1.400       .  A
C1239      C1244   1.398       .  A
C1239      H1246   1.083       .  S
C1240      C1241   1.401       .  A
C1241      C1242   1.395       .  A
C1241      F1248   1.355       .  S
C1242      C1243   1.402       .  A
C1242      H1247   1.083       .  S
C1243      C1244   1.406       .  A
C1244      F1245   1.357       .  S
