geometry optimzed in LAMMPS
_audit_creation_date              2020-11-30 
_audit_creation_method            'lammps2cif' 
_symmetry_space_group_name_H-M    'P1' 
_symmetry_Int_Tables_number       1 
_symmetry_cell_setting            triclinic 
loop_ 
_symmetry_equiv_pos_as_xyz 
  x,y,z 
_cell_length_a                    60.90272265 
_cell_length_b                    60.95408658784839 
_cell_length_c                    60.95873714358966 
_cell_angle_alpha                 89.99860063404272 
_cell_angle_beta                  89.9680508583053 
_cell_angle_gamma                 89.87467386516673 
loop_ 
_atom_site_label 
_atom_site_type_symbol 
_atom_site_fract_x 
_atom_site_fract_y 
_atom_site_fract_z 
_atom_site_charge 
O1          O  0.09226951  0.12587676  0.36242307    -0.73800
O2          O  0.15515908  0.12368817  0.35854320    -0.73900
O3          O  0.12279386  0.09333205  0.35958815    -0.73900
O4          O  0.12477847  0.15620805  0.36127740    -0.74000
O5          O  0.12601952  0.15526505  0.39783395    -0.73900
O6          O  0.12570686  0.09231526  0.39602613    -0.73900
O7          O  0.15719793  0.12357624  0.39508831    -0.73900
O8          O  0.09445571  0.12392395  0.39892199    -0.73900
Ni9        Ni  0.12364341  0.12481603  0.35915039     1.25400
Ni10       Ni  0.12590889  0.12373570  0.39825998     1.25400
C11         C  0.08306308  0.12512666  0.38132213     0.88300
C12         C  0.16650218  0.12338447  0.37624340     0.88300
C13         C  0.12427100  0.08243797  0.37751296     0.88300
C14         C  0.12566915  0.16609572  0.37981025     0.88500
O15         O  0.11968131  0.84251308  0.39722065    -0.73800
O16         O  0.12090099  0.90556688  0.39756011    -0.73900
O17         O  0.08882064  0.87475038  0.39764907    -0.73900
O18         O  0.15179252  0.87328954  0.39726743    -0.74000
O19         O  0.15158571  0.87254029  0.36069474    -0.73900
O20         O  0.08868311  0.87586335  0.36108052    -0.73900
O21         O  0.12175114  0.90558520  0.36096093    -0.73900
O22         O  0.11847550  0.84285046  0.36062613    -0.73900
Ni23       Ni  0.12030469  0.87402472  0.39874119     1.25400
Ni24       Ni  0.12011497  0.87422095  0.35954965     1.25400
C25         C  0.11871452  0.83237070  0.37882374     0.88300
C26         C  0.12171026  0.91590396  0.37925886     0.88300
C27         C  0.07838720  0.87569956  0.37942537     0.88300
C28         C  0.16206714  0.87248997  0.37892814     0.88500
O29         O  0.87585832  0.16146583  0.36331732    -0.73800
O30         O  0.87392997  0.09863079  0.36486344    -0.73900
O31         O  0.84354104  0.13110978  0.36295487    -0.73900
O32         O  0.90629291  0.12918682  0.36537418    -0.74000
O33         O  0.90504794  0.12861884  0.40169448    -0.73900
O34         O  0.84226808  0.13323995  0.39946815    -0.73900
O35         O  0.87127381  0.09949161  0.40135044    -0.73900
O36         O  0.87589700  0.16238901  0.39988973    -0.73900
Ni37       Ni  0.87495804  0.13004729  0.36284605     1.25400
Ni38       Ni  0.87358281  0.13097213  0.40192169     1.25400
C39         C  0.87636089  0.17226921  0.38132391     0.88300
C40         C  0.87201506  0.08872591  0.38330154     0.88300
C41         C  0.83258336  0.13268810  0.38082078     0.88300
C42         C  0.91623786  0.12844157  0.38387532     0.88500
O43         O  0.90120635  0.88019848  0.39499471    -0.73800
O44         O  0.83836943  0.87679489  0.39342489    -0.73900
O45         O  0.87151224  0.84730824  0.39252269    -0.73900
O46         O  0.86789161  0.91006320  0.39580070    -0.74000
O47         O  0.86990127  0.91211683  0.35957157    -0.73900
O48         O  0.87129104  0.84925630  0.35598823    -0.73900
O49         O  0.83911529  0.87992762  0.35697355    -0.73900
O50         O  0.90203087  0.88116850  0.35844246    -0.73900
Ni51       Ni  0.86972868  0.87857869  0.39548445     1.25400
Ni52       Ni  0.87061345  0.88074162  0.35644791     1.25400
C53         C  0.91198759  0.88068910  0.37694450     0.88300
C54         C  0.82843145  0.87760507  0.37492972     0.88300
C55         C  0.87172305  0.83794277  0.37370474     0.88300
C56         C  0.86845000  0.92166670  0.37826196     0.88500
O57         O  0.10514003  0.40534013  0.37271433    -0.73800
O58         O  0.10734616  0.34251870  0.37480261    -0.73900
O59         O  0.10657359  0.37480175  0.40523678    -0.73900
O60         O  0.10610773  0.37314279  0.34239742    -0.74000
O61         O  0.14274382  0.37366755  0.34218589    -0.73900
O62         O  0.14287533  0.37662806  0.40493153    -0.73900
O63         O  0.14389702  0.34357823  0.37504332    -0.73900
O64         O  0.14167252  0.40651847  0.37200176    -0.73900
Ni65       Ni  0.10500227  0.37388567  0.37381438     1.25400
Ni66       Ni  0.14409793  0.37511377  0.37354857     1.25400
C67         C  0.12302397  0.41632859  0.37173170     0.88300
C68         C  0.12593400  0.33264066  0.37533459     0.88300
C69         C  0.12479524  0.37609000  0.41566194     0.88300
C70         C  0.12437824  0.37340378  0.33197996     0.88500
O71         O  0.14294321  0.37979637  0.65538196    -0.73800
O72         O  0.14294427  0.37910645  0.59258088    -0.73900
O73         O  0.14124545  0.41086699  0.62348496    -0.73900
O74         O  0.14465444  0.34809609  0.62447486    -0.74000
O75         O  0.10807775  0.34633028  0.62508069    -0.73900
O76         O  0.10474480  0.40915849  0.62334878    -0.73900
O77         O  0.10636379  0.37675705  0.59268617    -0.73900
O78         O  0.10631502  0.37855780  0.65544106    -0.73900
Ni79       Ni  0.14424801  0.37955464  0.62396252     1.25400
Ni80       Ni  0.10506959  0.37765085  0.62409641     1.25400
C81         C  0.12462937  0.37915468  0.66570613     0.88300
C82         C  0.12464876  0.37769358  0.58235620     0.88300
C83         C  0.12248708  0.42044548  0.62338488     0.88300
C84         C  0.12690257  0.33688524  0.62525148     0.88500
O85         O  0.09915552  0.65582989  0.37083514    -0.73800
O86         O  0.10023615  0.59284987  0.36908288    -0.73900
O87         O  0.09929241  0.62364146  0.40132624    -0.73900
O88         O  0.09991645  0.62517541  0.33842196    -0.74000
O89         O  0.13654569  0.62465208  0.33872194    -0.73900
O90         O  0.13588116  0.62523643  0.40174441    -0.73900
O91         O  0.13682021  0.59348557  0.37042051    -0.73900
O92         O  0.13578446  0.65632890  0.37010444    -0.73900
Ni93       Ni  0.09834609  0.62433235  0.36988201     1.25400
Ni94       Ni  0.13756219  0.62492198  0.37024829     1.25400
C95         C  0.11732399  0.66640803  0.37082858     0.88300
C96         C  0.11874692  0.58280081  0.36961996     0.88300
C97         C  0.11743637  0.62470824  0.41188557     0.88300
C98         C  0.11831351  0.62496014  0.32821664     0.88500
O99         O  0.10125919  0.66017291  0.62163485    -0.73800
O100        O  0.10220402  0.59716339  0.62078180    -0.73900
O101        O  0.10281168  0.62767975  0.65270409    -0.73900
O102        O  0.10073949  0.62920169  0.58970375    -0.74000
O103        O  0.13712429  0.63040562  0.58859173    -0.73900
O104        O  0.13933095  0.62767474  0.65131452    -0.73900
O105        O  0.13875430  0.59756099  0.61890923    -0.73900
O106        O  0.13779835  0.66040145  0.62100566    -0.73900
Ni107      Ni  0.10044095  0.62858933  0.62125461     1.25400
Ni108      Ni  0.13952446  0.62904945  0.61991365     1.25400
C109        C  0.11944666  0.67072150  0.62106014     0.88300
C110        C  0.12062907  0.58698809  0.62003156     0.88300
C111        C  0.12147367  0.62666816  0.66239385     0.88300
C112        C  0.11861468  0.63027600  0.57861508     0.88500
O113        O  0.65554497  0.15060919  0.37829627    -0.73800
O114        O  0.59272027  0.14771111  0.37797216    -0.73900
O115        O  0.62396349  0.15063608  0.40958939    -0.73900
O116        O  0.62442723  0.14785097  0.34664489    -0.74000
O117        O  0.62703871  0.11140622  0.34823280    -0.73900
O118        O  0.62483982  0.11413117  0.41122511    -0.73900
O119        O  0.59449882  0.11141773  0.37852844    -0.73900
O120        O  0.65718615  0.11412564  0.38073457    -0.73900
Ni121      Ni  0.62408127  0.15049816  0.37807205     1.25400
Ni122      Ni  0.62591895  0.11147829  0.37976151     1.25400
C123        C  0.66668488  0.13280989  0.37965884     0.88300
C124        C  0.58305191  0.12905969  0.37791944     0.88300
C125        C  0.62448517  0.13286105  0.42081677     0.88300
C126        C  0.62600950  0.12919491  0.33705490     0.88500
O127        O  0.62712793  0.11628003  0.66033230    -0.73800
O128        O  0.62974405  0.11778311  0.59744340    -0.73900
O129        O  0.65983288  0.11636112  0.63033649    -0.73900
O130        O  0.59709899  0.11753583  0.62760698    -0.74000
O131        O  0.59737748  0.15406377  0.62914963    -0.73900
O132        O  0.66057826  0.15293987  0.63043125    -0.73900
O133        O  0.62942194  0.15436967  0.59828920    -0.73900
O134        O  0.62850578  0.15284966  0.66125828    -0.73900
Ni135      Ni  0.62843981  0.11571629  0.62888523     1.25400
Ni136      Ni  0.62899975  0.15488109  0.62981211     1.25400
C137        C  0.62763935  0.13430828  0.67112285     0.88300
C138        C  0.62964782  0.13632063  0.58750575     0.88300
C139        C  0.67056543  0.13438822  0.63097964     0.88300
C140        C  0.58684378  0.13589781  0.62785934     0.88500
O141        O  0.34284137  0.13956692  0.37061021    -0.73800
O142        O  0.40568415  0.14060237  0.37061168    -0.73900
O143        O  0.37435252  0.13874296  0.33914408    -0.73900
O144        O  0.37419395  0.14141098  0.40192168    -0.74000
O145        O  0.37585656  0.10485227  0.40345115    -0.73900
O146        O  0.37406674  0.10215034  0.34067584    -0.73900
O147        O  0.40642893  0.10399704  0.37119483    -0.73900
O148        O  0.34349370  0.10306740  0.37294728    -0.73900
Ni149      Ni  0.37424315  0.14138109  0.37048804     1.25400
Ni150      Ni  0.37498372  0.10220404  0.37210868     1.25400
C151        C  0.33279237  0.12117203  0.37198230     0.88300
C152        C  0.41638205  0.12249276  0.37098923     0.88300
C153        C  0.37412401  0.12001365  0.32962100     0.88300
C154        C  0.37513738  0.12356993  0.41297962     0.88500
O155        O  0.34719422  0.10901223  0.62164566    -0.73800
O156        O  0.41032159  0.11004850  0.62201817    -0.73900
O157        O  0.37834224  0.10894684  0.65320076    -0.73900
O158        O  0.37895521  0.10976891  0.59044002    -0.74000
O159        O  0.37723087  0.14605265  0.59062310    -0.73900
O160        O  0.37859396  0.14554801  0.65371314    -0.73900
O161        O  0.40942207  0.14656591  0.62164195    -0.73900
O162        O  0.34670297  0.14558943  0.62298891    -0.73900
Ni163      Ni  0.37876442  0.10814223  0.62179059     1.25400
Ni164      Ni  0.37801107  0.14723392  0.62221380     1.25400
C165        C  0.33663295  0.12720583  0.62269168     0.88300
C166        C  0.42029845  0.12857222  0.62186106     0.88300
C167        C  0.37818766  0.12708156  0.66378921     0.88300
C168        C  0.37775286  0.12791270  0.57993185     0.88500
O169        O  0.89345508  0.63149174  0.40657383    -0.73800
O170        O  0.89338969  0.62997547  0.34368281    -0.73900
O171        O  0.89231984  0.66212236  0.37423253    -0.73900
O172        O  0.89473398  0.59941891  0.37602248    -0.74000
O173        O  0.85810639  0.59802780  0.37570709    -0.73900
O174        O  0.85571697  0.66091563  0.37466713    -0.73900
O175        O  0.85680145  0.62894529  0.34384848    -0.73900
O176        O  0.85691798  0.63005515  0.40665933    -0.73900
Ni177      Ni  0.89477176  0.63080223  0.37512803     1.25400
Ni178      Ni  0.85557866  0.62943192  0.37523677     1.25400
C179        C  0.87519290  0.63092738  0.41703090     0.88300
C180        C  0.87504777  0.62934577  0.33339683     0.88300
C181        C  0.87365985  0.67184709  0.37407154     0.88300
C182        C  0.87684697  0.58844454  0.37612747     0.88500
O183        O  0.85798084  0.65627766  0.62540643    -0.73800
O184        O  0.85928923  0.59350499  0.62428985    -0.73900
O185        O  0.85823139  0.62435575  0.65648410    -0.73900
O186        O  0.85894709  0.62567061  0.59354672    -0.74000
O187        O  0.89556279  0.62506218  0.59387215    -0.73900
O188        O  0.89480045  0.62620642  0.65688235    -0.73900
O189        O  0.89563319  0.59402706  0.62602903    -0.73900
O190        O  0.89458081  0.65693512  0.62472516    -0.73900
Ni191      Ni  0.85732360  0.62488437  0.62495328     1.25400
Ni192      Ni  0.89645955  0.62553043  0.62540557     1.25400
C193        C  0.87605866  0.66695470  0.62478053     0.88300
C194        C  0.87762872  0.58320028  0.62511768     0.88300
C195        C  0.87638699  0.62548543  0.66703967     0.88300
C196        C  0.87735027  0.62580251  0.58336556     0.88500
O197        O  0.90116563  0.37884970  0.40597956    -0.73800
O198        O  0.89977938  0.38077270  0.34298109    -0.73900
O199        O  0.90047200  0.41132743  0.37560568    -0.73900
O200        O  0.90048979  0.34840720  0.37369470    -0.74000
O201        O  0.86390440  0.34856995  0.37571115    -0.73900
O202        O  0.86409946  0.41137926  0.37513227    -0.73900
O203        O  0.86320510  0.37970095  0.34389923    -0.73900
O204        O  0.86458519  0.38010730  0.40677079    -0.73900
Ni205      Ni  0.90179469  0.37986082  0.37448550     1.25400
Ni206      Ni  0.86266449  0.37997037  0.37536692     1.25400
C207        C  0.88307181  0.37910535  0.41673518     0.88300
C208        C  0.88122026  0.38026279  0.33306001     0.88300
C209        C  0.88226708  0.42192074  0.37579196     0.88300
C210        C  0.88218068  0.33816563  0.37493914     0.88500
O211        O  0.85697600  0.37528391  0.65467572    -0.73800
O212        O  0.86139767  0.37460322  0.59199053    -0.73900
O213        O  0.85847726  0.34350143  0.62365013    -0.73900
O214        O  0.85995703  0.40637753  0.62304973    -0.74000
O215        O  0.89643543  0.40552512  0.62640498    -0.73900
O216        O  0.89508583  0.34269536  0.62523731    -0.73900
O217        O  0.89792262  0.37449171  0.59442393    -0.73900
O218        O  0.89348734  0.37357284  0.65717726    -0.73900
Ni219      Ni  0.85790145  0.37498705  0.62324417     1.25400
Ni220      Ni  0.89703784  0.37405764  0.62590213     1.25400
C221        C  0.87450522  0.37435125  0.66623898     0.88300
C222        C  0.88035325  0.37439893  0.58285623     0.88300
C223        C  0.87658334  0.33278862  0.62442158     0.88300
C224        C  0.87841491  0.41627422  0.62478447     0.88500
O225        O  0.33972408  0.85258715  0.37370022    -0.73800
O226        O  0.40270749  0.85467714  0.37495475    -0.73900
O227        O  0.37074695  0.85294376  0.40557705    -0.73900
O228        O  0.37177464  0.85433833  0.34270464    -0.74000
O229        O  0.37114566  0.89093382  0.34348871    -0.73900
O230        O  0.36918516  0.88945666  0.40640499    -0.73900
O231        O  0.40142830  0.89121598  0.37620977    -0.73900
O232        O  0.33850125  0.88914466  0.37401116    -0.73900
Ni233      Ni  0.37126293  0.85234058  0.37414640     1.25400
Ni234      Ni  0.36996763  0.89148550  0.37500050     1.25400
C235        C  0.32871969  0.87053457  0.37387215     0.88300
C236        C  0.41241685  0.87326762  0.37633948     0.88300
C237        C  0.37016649  0.87097016  0.41638085     0.88300
C238        C  0.37178681  0.87286163  0.33276204     0.88500
O239        O  0.34006147  0.85172362  0.62304877    -0.73800
O240        O  0.40280021  0.84860149  0.62617274    -0.73900
O241        O  0.36992296  0.85055680  0.65601619    -0.73900
O242        O  0.37285053  0.84976686  0.59320193    -0.74000
O243        O  0.37515143  0.88628124  0.59283104    -0.73900
O244        O  0.37107968  0.88710913  0.65567570    -0.73900
O245        O  0.40442260  0.88514356  0.62630883    -0.73900
O246        O  0.34181066  0.88829185  0.62198320    -0.73900
Ni247      Ni  0.37134999  0.84886221  0.62462666     1.25400
Ni248      Ni  0.37318207  0.88800992  0.62420589     1.25400
C249        C  0.33068308  0.87050093  0.62173357     0.88300
C250        C  0.41394446  0.86639075  0.62688235     0.88300
C251        C  0.37010765  0.86893495  0.66622777     0.88300
C252        C  0.37434498  0.86789639  0.58266700     0.88500
O253        O  0.62342511  0.85367569  0.65975097    -0.73800
O254        O  0.62225892  0.85321544  0.59691795    -0.73900
O255        O  0.65433294  0.85481432  0.62771588    -0.73900
O256        O  0.59146114  0.85202423  0.62890276    -0.74000
O257        O  0.58978325  0.88855202  0.62827812    -0.73900
O258        O  0.65275074  0.89135419  0.62797851    -0.73900
O259        O  0.62116261  0.88982006  0.59679163    -0.73900
O260        O  0.62123403  0.89022950  0.65947003    -0.73900
Ni261      Ni  0.62294480  0.85212644  0.62833957     1.25400
Ni262      Ni  0.62118132  0.89128711  0.62812426     1.25400
C263        C  0.62228798  0.87204196  0.66991084     0.88300
C264        C  0.62159512  0.87148696  0.58656011     0.88300
C265        C  0.66393625  0.87350778  0.62763751     0.88300
C266        C  0.58023810  0.86982732  0.62869788     0.88500
O267        O  0.62096845  0.85500981  0.41026265    -0.73800
O268        O  0.61860796  0.85595499  0.34759423    -0.73900
O269        O  0.65130946  0.85388069  0.37766933    -0.73900
O270        O  0.58844827  0.85702914  0.38014099    -0.74000
O271        O  0.59007935  0.89346734  0.38058037    -0.73900
O272        O  0.65293847  0.89041641  0.37837950    -0.73900
O273        O  0.62054844  0.89220210  0.34790226    -0.73900
O274        O  0.62243175  0.89156861  0.41068658    -0.73900
Ni275      Ni  0.61979331  0.85418089  0.37889065     1.25400
Ni276      Ni  0.62157633  0.89321470  0.37935855     1.25400
C277        C  0.62178978  0.87316459  0.42079641     0.88300
C278        C  0.61918160  0.87417281  0.33716930     0.88300
C279        C  0.66247652  0.87166800  0.37775414     0.88300
C280        C  0.57882192  0.87573066  0.38100988     0.88500
O281        O  0.12478248  0.84760478  0.63740631    -0.73800
O282        O  0.12353433  0.91041447  0.63649194    -0.73900
O283        O  0.09273144  0.87848927  0.63807823    -0.73900
O284        O  0.15560071  0.87954665  0.63587042    -0.74000
O285        O  0.15430324  0.87830915  0.59931047    -0.73900
O286        O  0.09140910  0.87860597  0.60158321    -0.73900
O287        O  0.12314068  0.91009415  0.60016683    -0.73900
O288        O  0.12282313  0.84720708  0.60087537    -0.73900
Ni289      Ni  0.12420382  0.87905701  0.63825414     1.25400
Ni290      Ni  0.12285154  0.87858571  0.59918186     1.25400
C291        C  0.12385261  0.83705840  0.61925487     0.88300
C292        C  0.12346888  0.92083571  0.61824916     0.88300
C293        C  0.08165150  0.87818824  0.62021435     0.88300
C294        C  0.16526230  0.87876892  0.61721924     0.88500
O295        O  0.09724159  0.12804688  0.64223711    -0.73800
O296        O  0.16003681  0.12796143  0.64342674    -0.73900
O297        O  0.12866164  0.15951848  0.64457674    -0.73900
O298        O  0.12858464  0.09671582  0.64095336    -0.74000
O299        O  0.13014678  0.09879315  0.60442381    -0.73900
O300        O  0.12845392  0.16150498  0.60802579    -0.73900
O301        O  0.16079768  0.13088125  0.60694230    -0.73900
O302        O  0.09778824  0.12935274  0.60569413    -0.73900
Ni303      Ni  0.12862165  0.12801117  0.64409494     1.25400
Ni304      Ni  0.12933618  0.13022725  0.60496080     1.25400
C305        C  0.08712955  0.12840659  0.62382006     0.88300
C306        C  0.17074616  0.12942304  0.62541265     0.88300
C307        C  0.12843230  0.17082921  0.62685570     0.88300
C308        C  0.12928161  0.08746917  0.62209141     0.88500
O309        O  0.84833503  0.12664322  0.65092835    -0.73800
O310        O  0.91126894  0.12474783  0.64756106    -0.73900
O311        O  0.88062168  0.15720654  0.64787560    -0.73900
O312        O  0.87886119  0.09431116  0.65049746    -0.74000
O313        O  0.87777597  0.09300339  0.61391382    -0.73900
O314        O  0.87785714  0.15572180  0.61141521    -0.73900
O315        O  0.90930709  0.12415543  0.61103395    -0.73900
O316        O  0.84637460  0.12453877  0.61448144    -0.73900
Ni317      Ni  0.87986270  0.12579193  0.65052621     1.25400
Ni318      Ni  0.87777078  0.12430425  0.61142364     1.25400
C319        C  0.83695788  0.12569981  0.63326836     0.88300
C320        C  0.92065654  0.12426739  0.62874007     0.88300
C321        C  0.87926688  0.16679809  0.62920261     0.88300
C322        C  0.87807139  0.08337373  0.63256994     0.88500
O323        O  0.90460537  0.87543172  0.60856693    -0.73800
O324        O  0.84156729  0.87580682  0.60785649    -0.73900
O325        O  0.87337470  0.90704279  0.60992023    -0.73900
O326        O  0.87311887  0.84428969  0.60655423    -0.74000
O327        O  0.87287436  0.84245381  0.64306188    -0.73900
O328        O  0.87253415  0.90524440  0.64619062    -0.73900
O329        O  0.84120377  0.87376623  0.64432421    -0.73900
O330        O  0.90428126  0.87376627  0.64505193    -0.73900
Ni331      Ni  0.87315078  0.87572895  0.60693988     1.25400
Ni332      Ni  0.87270086  0.87376042  0.64595102     1.25400
C333        C  0.91488058  0.87438150  0.62688267     0.88300
C334        C  0.83094092  0.87472184  0.62599203     0.88300
C335        C  0.87304879  0.91671595  0.62857829     0.88300
C336        C  0.87317815  0.83300800  0.62428331     0.88500
O337        O  0.39698622  0.15312345  0.12401419    -0.73800
O338        O  0.39777589  0.09002648  0.12168200    -0.73900
O339        O  0.39849355  0.12268311  0.09131494    -0.73900
O340        O  0.39643571  0.12034145  0.15416569    -0.74000
O341        O  0.35982597  0.12069865  0.15294008    -0.73900
O342        O  0.36187475  0.12162572  0.09020285    -0.73900
O343        O  0.36119229  0.08988062  0.12105376    -0.73900
O344        O  0.36042255  0.15269654  0.12213231    -0.73900
Ni345      Ni  0.39875235  0.12158871  0.12281169     1.25400
Ni346      Ni  0.35955366  0.12125145  0.12152761     1.25400
C347        C  0.37851871  0.16328292  0.12349133     0.88300
C348        C  0.37953140  0.07954813  0.12123766     0.88300
C349        C  0.38049658  0.12210169  0.08046112     0.88300
C350        C  0.37777287  0.12010789  0.16386882     0.88500
O351        O  0.39523527  0.15048230  0.87061888    -0.73800
O352        O  0.39551210  0.08747602  0.87276168    -0.73900
O353        O  0.39490091  0.11818967  0.83999994    -0.73900
O354        O  0.39562297  0.11986811  0.90308200    -0.74000
O355        O  0.35922552  0.11836908  0.90358300    -0.73900
O356        O  0.35832125  0.11957708  0.84066435    -0.73900
O357        O  0.35901506  0.08751488  0.87192643    -0.73900
O358        O  0.35867564  0.15049974  0.87259372    -0.73900
Ni359      Ni  0.39662680  0.11899119  0.87156257     1.25400
Ni360      Ni  0.35752341  0.11897810  0.87216907     1.25400
C361        C  0.37692876  0.16086599  0.87141366     0.88300
C362        C  0.37726670  0.07703733  0.87309867     0.88300
C363        C  0.37642749  0.11923212  0.82994549     0.88300
C364        C  0.37755206  0.11890606  0.91386929     0.88500
O365        O  0.35536209  0.83715561  0.87381731    -0.73800
O366        O  0.35403901  0.90004138  0.87595321    -0.73900
O367        O  0.35390671  0.86949974  0.84359975    -0.73900
O368        O  0.35538323  0.86759954  0.90641794    -0.74000
O369        O  0.39199592  0.86768853  0.90567320    -0.73900
O370        O  0.39049293  0.87079981  0.84270155    -0.73900
O371        O  0.39067657  0.90067727  0.87584323    -0.73900
O372        O  0.39190617  0.83790144  0.87262377    -0.73900
Ni373      Ni  0.35338089  0.86856205  0.87500992     1.25400
Ni374      Ni  0.39257623  0.86930542  0.87418356     1.25400
C375        C  0.37385447  0.82714035  0.87258870     0.88300
C376        C  0.37216124  0.91067645  0.87628388     0.88300
C377        C  0.37192459  0.87031588  0.83279118     0.88300
C378        C  0.37389196  0.86728153  0.91640461     0.88500
O379        O  0.39365874  0.83937068  0.12427693    -0.73800
O380        O  0.39509312  0.90226896  0.12483098    -0.73900
O381        O  0.39411207  0.87055336  0.15620435    -0.73900
O382        O  0.39464247  0.87086900  0.09320845    -0.74000
O383        O  0.35802158  0.87089655  0.09296849    -0.73900
O384        O  0.35751813  0.87239095  0.15588712    -0.73900
O385        O  0.35849478  0.90311374  0.12366013    -0.73900
O386        O  0.35704842  0.84022469  0.12484272    -0.73900
Ni387      Ni  0.39568247  0.87075744  0.12469541     1.25400
Ni388      Ni  0.35647045  0.87170719  0.12438734     1.25400
C389        C  0.37512852  0.82945537  0.12408992     0.88300
C390        C  0.37701937  0.91304283  0.12394213     0.88300
C391        C  0.37572462  0.87161649  0.16639389     0.88300
C392        C  0.37640375  0.87044748  0.08273644     0.88500
O393        O  0.90845608  0.39857698  0.12534056    -0.73800
O394        O  0.84556732  0.39867145  0.12391067    -0.73900
O395        O  0.87636910  0.39846774  0.15613217    -0.73900
O396        O  0.87751591  0.39897202  0.09303489    -0.74000
O397        O  0.87652399  0.36244708  0.09281726    -0.73900
O398        O  0.87784150  0.36191621  0.15593275    -0.73900
O399        O  0.84575507  0.36207112  0.12492747    -0.73900
O400        O  0.90858382  0.36223507  0.12373112    -0.73900
Ni401      Ni  0.87699559  0.39997230  0.12461159     1.25400
Ni402      Ni  0.87718401  0.36086933  0.12434458     1.25400
C403        C  0.91906193  0.38040040  0.12470457     0.88300
C404        C  0.83534791  0.38033481  0.12425608     0.88300
C405        C  0.87715772  0.38014342  0.16642852     0.88300
C406        C  0.87677309  0.38078451  0.08248607     0.88500
O407        O  0.90729368  0.35709371  0.87315108    -0.73800
O408        O  0.84443054  0.35693315  0.87523393    -0.73900
O409        O  0.87472150  0.35645075  0.84273346    -0.73900
O410        O  0.87671812  0.35759713  0.90569600    -0.74000
O411        O  0.87579072  0.39416543  0.90496455    -0.73900
O412        O  0.87525971  0.39305428  0.84212128    -0.73900
O413        O  0.84416718  0.39351614  0.87384601    -0.73900
O414        O  0.90702027  0.39367179  0.87310603    -0.73900
Ni415      Ni  0.87583382  0.35570445  0.87422409     1.25400
Ni416      Ni  0.87558446  0.39489482  0.87349271     1.25400
C417        C  0.91752671  0.37544127  0.87280825     0.88300
C418        C  0.83397873  0.37518660  0.87484642     0.88300
C419        C  0.87462130  0.37459731  0.83211070     0.88300
C420        C  0.87617236  0.37609245  0.91570511     0.88500
O421        O  0.09639768  0.39748002  0.12431176    -0.73800
O422        O  0.15926003  0.39577864  0.12450390    -0.73900
O423        O  0.12786488  0.39624262  0.09270968    -0.73900
O424        O  0.12769088  0.39685349  0.15574133    -0.74000
O425        O  0.12585393  0.36029309  0.15591381    -0.73900
O426        O  0.12795228  0.35992595  0.09307129    -0.73900
O427        O  0.15831053  0.35924299  0.12556608    -0.73900
O428        O  0.09553622  0.36090114  0.12365393    -0.73900
Ni429      Ni  0.12784970  0.39789988  0.12425814     1.25400
Ni430      Ni  0.12689124  0.35880302  0.12452289     1.25400
C431        C  0.08564570  0.37945201  0.12414670     0.88300
C432        C  0.16914366  0.37722768  0.12545312     0.88300
C433        C  0.12804155  0.37796130  0.08226871     0.88300
C434        C  0.12648730  0.37862912  0.16615163     0.88500
O435        O  0.09416856  0.39501291  0.87270471    -0.73800
O436        O  0.15720544  0.39494240  0.87312708    -0.73900
O437        O  0.12591607  0.39498481  0.84168129    -0.73900
O438        O  0.12534485  0.39504067  0.90458395    -0.74000
O439        O  0.12620848  0.35843389  0.90460134    -0.73900
O440        O  0.12511748  0.35837460  0.84172090    -0.73900
O441        O  0.15712351  0.35838441  0.87251907    -0.73900
O442        O  0.09425213  0.35842896  0.87349326    -0.73900
Ni443      Ni  0.12566345  0.39630916  0.87308168     1.25400
Ni444      Ni  0.12568327  0.35711179  0.87313397     1.25400
C445        C  0.08385193  0.37670479  0.87281485     0.88300
C446        C  0.16756179  0.37661698  0.87237246     0.88300
C447        C  0.12540970  0.37667202  0.83139920     0.88300
C448        C  0.12580730  0.37673988  0.91492180     0.88500
O449        O  0.60400020  0.90444507  0.12644205    -0.73800
O450        O  0.60335267  0.84155125  0.12874546    -0.73900
O451        O  0.60319720  0.87439278  0.15886355    -0.73900
O452        O  0.60421619  0.87198428  0.09611414    -0.74000
O453        O  0.64058850  0.87156981  0.09667264    -0.73900
O454        O  0.63960923  0.87318118  0.15952390    -0.73900
O455        O  0.63999129  0.84112947  0.12875630    -0.73900
O456        O  0.64057716  0.90392043  0.12733180    -0.73900
Ni457      Ni  0.60239158  0.87307104  0.12750991     1.25400
Ni458      Ni  0.64148587  0.87245904  0.12809920     1.25400
C459        C  0.62241524  0.91455117  0.12677401     0.88300
C460        C  0.62160039  0.83104540  0.12890676     0.88300
C461        C  0.62120157  0.87420206  0.16970128     0.88300
C462        C  0.62256693  0.87143858  0.08582971     0.88500
O463        O  0.64315369  0.87539198  0.90867751    -0.73800
O464        O  0.64269980  0.87685111  0.84571077    -0.73900
O465        O  0.64185742  0.90759535  0.87791689    -0.73900
O466        O  0.64408089  0.84474704  0.87658757    -0.74000
O467        O  0.60750689  0.84367493  0.87811319    -0.73900
O468        O  0.60550466  0.90659425  0.87667399    -0.73900
O469        O  0.60614475  0.87438342  0.84609185    -0.73900
O470        O  0.60652136  0.87570478  0.90881463    -0.73900
Ni471      Ni  0.64426407  0.87621307  0.87720294     1.25400
Ni472      Ni  0.60512478  0.87507118  0.87743962     1.25400
C473        C  0.62485506  0.87530865  0.91906574     0.88300
C474        C  0.62430168  0.87553460  0.83560254     0.88300
C475        C  0.62337556  0.91766853  0.87718693     0.88300
C476        C  0.62613625  0.83385756  0.87746632     0.88500
O477        O  0.64880235  0.15673212  0.87834809    -0.73800
O478        O  0.64513201  0.09378722  0.87839412    -0.73900
O479        O  0.64618457  0.12534418  0.84696299    -0.73900
O480        O  0.64811077  0.12511326  0.90975776    -0.74000
O481        O  0.61151983  0.12629052  0.91093688    -0.73900
O482        O  0.60968550  0.12847824  0.84800426    -0.73900
O483        O  0.60856284  0.09608782  0.87853735    -0.73900
O484        O  0.61226359  0.15861318  0.88044960    -0.73900
Ni485      Ni  0.64837422  0.12516774  0.87831906     1.25400
Ni486      Ni  0.60921585  0.12744748  0.87951848     1.25400
C487        C  0.63102184  0.16798049  0.87953825     0.88300
C488        C  0.62618870  0.08462441  0.87840233     0.88300
C489        C  0.62768548  0.12719392  0.83715580     0.88300
C490        C  0.63015233  0.12537354  0.92069216     0.88500
O491        O  0.64932672  0.15308074  0.12846273    -0.73800
O492        O  0.64640886  0.09019032  0.12996322    -0.73900
O493        O  0.64845611  0.12085315  0.09775568    -0.73900
O494        O  0.64737990  0.12247518  0.16065197    -0.74000
O495        O  0.61076177  0.12358261  0.16002540    -0.73900
O496        O  0.61192012  0.12302416  0.09708174    -0.73900
O497        O  0.60984020  0.09194975  0.12873882    -0.73900
O498        O  0.61277859  0.15475188  0.12820835    -0.73900
Ni499      Ni  0.64919397  0.12157174  0.12923815     1.25400
Ni500      Ni  0.61002932  0.12339153  0.12851017     1.25400
C501        C  0.63150689  0.16431308  0.12810560     0.88300
C502        C  0.62763565  0.08073508  0.12939559     0.88300
C503        C  0.63037941  0.12180906  0.08703743     0.88300
C504        C  0.62890096  0.12326034  0.17067331     0.88500
O505        O  0.09176334  0.64396028  0.12110732    -0.73800
O506        O  0.15477125  0.64333052  0.11904740    -0.73900
O507        O  0.12215265  0.64357993  0.08867173    -0.73900
O508        O  0.12416895  0.64375527  0.15158146    -0.74000
O509        O  0.12310197  0.60716091  0.15162996    -0.73900
O510        O  0.12262132  0.60725000  0.08872584    -0.73900
O511        O  0.15435814  0.60678341  0.11972870    -0.73900
O512        O  0.09151818  0.60743717  0.12066714    -0.73900
Ni513      Ni  0.12325897  0.64496429  0.12009790     1.25400
Ni514      Ni  0.12292099  0.60587398  0.12017476     1.25400
C515        C  0.08122666  0.62577221  0.12127615     0.88300
C516        C  0.16495720  0.62489854  0.11911398     0.88300
C517        C  0.12209958  0.62540061  0.07811834     0.88300
C518        C  0.12346987  0.62547446  0.16193213     0.88500
O519        O  0.12550261  0.59927923  0.83916346    -0.73800
O520        O  0.12552419  0.60227901  0.90195448    -0.73900
O521        O  0.09398109  0.60173614  0.87076795    -0.73900
O522        O  0.15687011  0.59969238  0.87036950    -0.74000
O523        O  0.15796116  0.63628826  0.86957271    -0.73900
O524        O  0.09501490  0.63823961  0.86819992    -0.73900
O525        O  0.12570456  0.63885577  0.90018895    -0.73900
O526        O  0.12727606  0.63578091  0.83757825    -0.73900
Ni527      Ni  0.12541334  0.59943626  0.87062356     1.25400
Ni528      Ni  0.12652797  0.63859066  0.86881358     1.25400
C529        C  0.12677406  0.61707132  0.82803894     0.88300
C530        C  0.12535797  0.62107940  0.91136006     0.88300
C531        C  0.08415875  0.62031719  0.86970275     0.88300
C532        C  0.16772821  0.61764779  0.86984432     0.88500
O533        O  0.87492679  0.64752724  0.90666895    -0.73800
O534        O  0.87630585  0.64779182  0.84379512    -0.73900
O535        O  0.84427199  0.64852392  0.87484824    -0.73900
O536        O  0.90745243  0.64636116  0.87576633    -0.74000
O537        O  0.90610998  0.60998519  0.87640974    -0.73900
O538        O  0.84327873  0.61196729  0.87426038    -0.73900
O539        O  0.87585125  0.61119088  0.84366087    -0.73900
O540        O  0.87357629  0.61111187  0.90670741    -0.73900
Ni541      Ni  0.87583632  0.64884748  0.87525832     1.25400
Ni542      Ni  0.87468433  0.60977813  0.87521868     1.25400
C543        C  0.87358761  0.62937827  0.91716932     0.88300
C544        C  0.87623297  0.62955341  0.83339292     0.88300
C545        C  0.83339419  0.63052981  0.87468020     0.88300
C546        C  0.91733194  0.62772580  0.87628884     0.88500
O547        O  0.87353457  0.61075106  0.15707977    -0.73800
O548        O  0.87287017  0.60979972  0.09421643    -0.73900
O549        O  0.90460539  0.61032698  0.12541929    -0.73900
O550        O  0.84180117  0.61002677  0.12606673    -0.74000
O551        O  0.84144688  0.64664008  0.12661519    -0.73900
O552        O  0.90445664  0.64691189  0.12390025    -0.73900
O553        O  0.87156034  0.64639241  0.09378123    -0.73900
O554        O  0.87417230  0.64732945  0.15657294    -0.73900
Ni555      Ni  0.87322055  0.60893106  0.12569156     1.25400
Ni556      Ni  0.87292073  0.64813816  0.12516924     1.25400
C557        C  0.87397969  0.62918805  0.16717547     0.88300
C558        C  0.87187768  0.62796471  0.08368095     0.88300
C559        C  0.91486124  0.62861687  0.12461084     0.88300
C560        C  0.83130574  0.62823567  0.12672505     0.88500
O561        O  0.34628091  0.37186769  0.14519014    -0.73800
O562        O  0.40916565  0.37154561  0.14354335    -0.73900
O563        O  0.37770677  0.40330875  0.14411035    -0.73900
O564        O  0.37750841  0.34025096  0.14466245    -0.74000
O565        O  0.37753539  0.34000041  0.10807516    -0.73900
O566        O  0.37602739  0.40289812  0.10758350    -0.73900
O567        O  0.40827153  0.37223594  0.10723112    -0.73900
O568        O  0.34538678  0.37097292  0.10867316    -0.73900
Ni569      Ni  0.37773012  0.37176211  0.14567801     1.25400
Ni570      Ni  0.37679898  0.37148906  0.10660060     1.25400
C571        C  0.33542926  0.37146067  0.12719829     0.88300
C572        C  0.41930702  0.37200050  0.12512038     0.88300
C573        C  0.37652053  0.41347390  0.12572682     0.88300
C574        C  0.37747689  0.32977179  0.12643856     0.88500
O575        O  0.37417827  0.65271175  0.10022417    -0.73800
O576        O  0.37320433  0.58989121  0.10155123    -0.73900
O577        O  0.34221890  0.62183443  0.10023994    -0.73900
O578        O  0.40517629  0.62087055  0.10173695    -0.74000
O579        O  0.40421526  0.62123824  0.13832609    -0.73900
O580        O  0.34145344  0.62277334  0.13679014    -0.73900
O581        O  0.37216973  0.59056627  0.13808437    -0.73900
O582        O  0.37367261  0.65345896  0.13680853    -0.73900
Ni583      Ni  0.37372263  0.62128434  0.09963253     1.25400
Ni584      Ni  0.37282604  0.62203671  0.13879741     1.25400
C585        C  0.37421589  0.66342350  0.11829445     0.88300
C586        C  0.37255984  0.57983599  0.11999974     0.88300
C587        C  0.33146128  0.62249652  0.11831004     0.88300
C588        C  0.41502415  0.62097232  0.12031766     0.88500
O589        O  0.65511749  0.62436551  0.10900070    -0.73800
O590        O  0.59218975  0.62355798  0.10791038    -0.73900
O591        O  0.62310685  0.65520893  0.10894278    -0.73900
O592        O  0.62413462  0.59236460  0.10799310    -0.74000
O593        O  0.62256932  0.59169271  0.14429114    -0.73900
O594        O  0.62313107  0.65459677  0.14554678    -0.73900
O595        O  0.59143709  0.62335344  0.14440293    -0.73900
O596        O  0.65441042  0.62293465  0.14554519    -0.73900
Ni597      Ni  0.62367124  0.62386304  0.10716954     1.25400
Ni598      Ni  0.62288666  0.62311464  0.14624743     1.25400
C599        C  0.66512731  0.62392243  0.12747522     0.88300
C600        C  0.58136716  0.62343648  0.12594967     0.88300
C601        C  0.62302054  0.66521431  0.12740567     0.88300
C602        C  0.62321324  0.58144316  0.12594235     0.88500
O603        O  0.65924672  0.37478927  0.13923927    -0.73800
O604        O  0.59653226  0.37033814  0.13905177    -0.73900
O605        O  0.63020582  0.34117930  0.13907154    -0.73900
O606        O  0.62555228  0.40385619  0.13934214    -0.74000
O607        O  0.62670481  0.40417312  0.10275585    -0.73900
O608        O  0.62939286  0.34114235  0.10250552    -0.73900
O609        O  0.59658684  0.37152581  0.10245094    -0.73900
O610        O  0.65940465  0.37389297  0.10263192    -0.73900
Ni611      Ni  0.62788097  0.37251629  0.14046672     1.25400
Ni612      Ni  0.62801747  0.37266986  0.10126330     1.25400
C613        C  0.66961841  0.37491768  0.12095559     0.88300
C614        C  0.58625506  0.37061433  0.12073053     0.88300
C615        C  0.63047466  0.33079349  0.12080116     0.88300
C616        C  0.62552647  0.41434306  0.12113954     0.88500
O617        O  0.37696365  0.64933721  0.85107072    -0.73800
O618        O  0.37642436  0.58659532  0.85450303    -0.73900
O619        O  0.34504931  0.61809544  0.85100760    -0.73900
O620        O  0.40798885  0.61794869  0.85458135    -0.74000
O621        O  0.40582881  0.61913909  0.89110049    -0.73900
O622        O  0.34297079  0.62019939  0.88750108    -0.73900
O623        O  0.37356082  0.58835846  0.89074779    -0.73900
O624        O  0.37507367  0.65119843  0.88748599    -0.73900
Ni625      Ni  0.37664902  0.61791251  0.85149765     1.25400
Ni626      Ni  0.37429842  0.61982085  0.89050448     1.25400
C627        C  0.37646552  0.66068542  0.86874241     0.88300
C628        C  0.37463408  0.57696356  0.87311114     0.88300
C629        C  0.33371012  0.61895517  0.86870739     0.88300
C630        C  0.41722634  0.61864904  0.87343857     0.88500
O631        O  0.65696089  0.62748019  0.86091422    -0.73800
O632        O  0.59410391  0.62451617  0.86006725    -0.73900
O633        O  0.62414103  0.65737871  0.86037201    -0.73900
O634        O  0.62702658  0.59455231  0.86067930    -0.74000
O635        O  0.62563465  0.59472065  0.89727910    -0.73900
O636        O  0.62441013  0.65749016  0.89696912    -0.73900
O637        O  0.59357146  0.62544738  0.89664315    -0.73900
O638        O  0.65651077  0.62683215  0.89749793    -0.73900
Ni639      Ni  0.62556124  0.62596105  0.85919721     1.25400
Ni640      Ni  0.62500625  0.62611564  0.89839764     1.25400
C641        C  0.66708278  0.62774304  0.87933336     0.88300
C642        C  0.58348439  0.62457969  0.87821787     0.88300
C643        C  0.62423386  0.66776813  0.87864459     0.88300
C644        C  0.62654388  0.58434553  0.87904293     0.88500
O645        O  0.65702602  0.37615643  0.89707578    -0.73800
O646        O  0.59412521  0.37451224  0.89462841    -0.73900
O647        O  0.62648184  0.34410350  0.89585320    -0.73900
O648        O  0.62466849  0.40682560  0.89585813    -0.74000
O649        O  0.62707013  0.40703760  0.85961207    -0.73900
O650        O  0.62692742  0.34412535  0.85925233    -0.73900
O651        O  0.59545938  0.37552764  0.85809520    -0.73900
O652        O  0.65829922  0.37536002  0.86052414    -0.73900
Ni653      Ni  0.62550666  0.37544425  0.89714823     1.25400
Ni654      Ni  0.62696432  0.37556828  0.85806503     1.25400
C655        C  0.66800949  0.37557160  0.87915140     0.88300
C656        C  0.58443759  0.37451505  0.87596860     0.88300
C657        C  0.62697662  0.33379637  0.87756058     0.88300
C658        C  0.62591762  0.41751511  0.87781609     0.88500
O659        O  0.37751930  0.40117129  0.85465606    -0.73800
O660        O  0.37605621  0.33828916  0.85135746    -0.73900
O661        O  0.34529995  0.37059405  0.85179081    -0.73900
O662        O  0.40824507  0.36893860  0.85414799    -0.74000
O663        O  0.40686751  0.36741205  0.89063374    -0.73900
O664        O  0.34392925  0.36853816  0.88825028    -0.73900
O665        O  0.37510179  0.33660979  0.88790964    -0.73900
O666        O  0.37564637  0.39931243  0.89118588    -0.73900
Ni667      Ni  0.37683052  0.36981174  0.85167957     1.25400
Ni668      Ni  0.37533631  0.36789150  0.89078069     1.25400
C669        C  0.37661217  0.41051965  0.87346289     0.88300
C670        C  0.37556928  0.32712821  0.86916931     0.88300
C671        C  0.33419764  0.36986563  0.86964683     0.88300
C672        C  0.41797451  0.36797148  0.87276734     0.88500
C673        C  0.52451366  0.38565993  0.86134824    -0.04900
C674        C  0.51367253  0.36964520  0.87405437     0.09300
C675        C  0.52605724  0.35498804  0.88700963    -0.02300
C676        C  0.54917982  0.35639375  0.88737094    -0.00500
C677        C  0.56008600  0.37280818  0.87510036    -0.04100
C678        C  0.54762713  0.38735177  0.86195201     0.02900
C679        C  0.48910042  0.36855932  0.87414394     0.09700
C680        C  0.51492703  0.33847722  0.90001321     0.35600
C681        C  0.55846597  0.40456667  0.84962124     0.39000
C682        C  0.47793273  0.35575962  0.85847404    -0.04500
C683        C  0.45474689  0.35515412  0.85828932     0.02700
C684        C  0.44249314  0.36770385  0.87361249    -0.04100
C685        C  0.45385122  0.38029398  0.88951192    -0.00300
C686        C  0.47702645  0.38057925  0.88981494    -0.02900
C687        C  0.49040598  0.34321874  0.84251350     0.36400
C688        C  0.44181795  0.39367931  0.90512776     0.40000
C689        C  0.44360858  0.34101573  0.84273459     0.39100
C690        C  0.48857423  0.39342063  0.90617103     0.36000
C691        C  0.51176711  0.40051369  0.84778082     0.36700
C692        C  0.56177159  0.34039457  0.89976483     0.40000
N693        N  0.43474007  0.32968003  0.83036347    -0.38100
N694        N  0.50041172  0.33326437  0.82978804    -0.39700
N695        N  0.43224341  0.40437960  0.91757732    -0.37400
N696        N  0.49785923  0.40359530  0.91922208    -0.39800
N697        N  0.50602436  0.32534571  0.91042932    -0.39600
N698        N  0.57186919  0.32759774  0.90953341    -0.37200
N699        N  0.56707321  0.41834967  0.83981469    -0.38300
N700        N  0.50152840  0.41228866  0.83694077    -0.39900
C701        C  0.62338021  0.47781551  0.85883042    -0.04900
C702        C  0.62675057  0.48912507  0.87866559     0.09300
C703        C  0.62996983  0.47724901  0.89818317    -0.02300
C704        C  0.62962328  0.45408718  0.89804424    -0.00500
C705        C  0.62616900  0.44231611  0.87808305    -0.04100
C706        C  0.62313173  0.45464341  0.85840723     0.02900
C707        C  0.62683644  0.51369681  0.87901590     0.09700
C708        C  0.63384421  0.48903692  0.91852539     0.35600
C709        C  0.61949926  0.44391131  0.83746976     0.39000
C710        C  0.60848173  0.52530605  0.88718209    -0.04500
C711        C  0.60857304  0.54843359  0.88757406     0.02700
C712        C  0.62677078  0.56007956  0.87921087    -0.04100
C713        C  0.64512795  0.54849169  0.87104221    -0.00300
C714        C  0.64528589  0.52535160  0.87124726    -0.02900
C715        C  0.58944699  0.51340023  0.89506888     0.36400
C716        C  0.66409795  0.56039232  0.86297944     0.40000
C717        C  0.58975954  0.56025150  0.89623781     0.39100
C718        C  0.66455076  0.51346551  0.86379917     0.36000
C719        C  0.62005380  0.49019653  0.83874280     0.36700
C720        C  0.63314322  0.44280164  0.91871788     0.40000
N721        N  0.57478419  0.56966046  0.90323145    -0.38100
N722        N  0.57429746  0.50387392  0.90139629    -0.39700
N723        N  0.67922598  0.56989315  0.85655847    -0.37400
N724        N  0.67991562  0.50392073  0.85793021    -0.39800
N725        N  0.63687899  0.49847524  0.93470974    -0.39600
N726        N  0.63589162  0.43402080  0.93533490    -0.37200
N727        N  0.61669071  0.43555898  0.82065373    -0.38300
N728        N  0.61749565  0.50011227  0.82275213    -0.39900
C729        C  0.39429248  0.47012591  0.86938889    -0.04900
C730        C  0.37477223  0.48107954  0.87546464     0.09300
C731        C  0.35610857  0.46883572  0.88155667    -0.02300
C732        C  0.35686955  0.44570881  0.88132159    -0.00500
C733        C  0.37623080  0.43474893  0.87471434    -0.04100
C734        C  0.39503478  0.44699370  0.86902999     0.02900
C735        C  0.37385694  0.50560349  0.87522448     0.09700
C736        C  0.33606533  0.48010558  0.88781791     0.35600
C737        C  0.41530292  0.43577739  0.86339018     0.39000
C738        C  0.36718327  0.51672730  0.85613491    -0.04500
C739        C  0.36706450  0.53987485  0.85549931     0.02700
C740        C  0.37375209  0.55229091  0.87413121    -0.04100
C741        C  0.37948001  0.54078485  0.89366414    -0.00300
C742        C  0.37972193  0.51761735  0.89402211    -0.02900
C743        C  0.36029916  0.50418899  0.83710296     0.36400
C744        C  0.38524621  0.55241398  0.91360228     0.40000
C745        C  0.35923123  0.55060743  0.83572609     0.39100
C746        C  0.38611611  0.50597698  0.91379744     0.36000
C747        C  0.41355436  0.48274834  0.86343993     0.36700
C748        C  0.33761607  0.43317732  0.88753951     0.40000
N749        N  0.35296055  0.55904183  0.81990619    -0.38100
N750        N  0.35475210  0.49414060  0.82198850    -0.39700
N751        N  0.38973628  0.56151605  0.92964813    -0.37400
N752        N  0.39121313  0.49665169  0.92953232    -0.39800
N753        N  0.32008031  0.48913904  0.89275910    -0.39600
N754        N  0.32228075  0.42318629  0.89257994    -0.37200
N755        N  0.43151733  0.42685544  0.85901886    -0.38300
N756        N  0.42887240  0.49291242  0.85870919    -0.39900
C757        C  0.47640689  0.60363543  0.88709262    -0.04900
C758        C  0.48796181  0.62107137  0.87713797     0.09300
C759        C  0.47617746  0.63779941  0.86619299    -0.02300
C760        C  0.45304735  0.63706357  0.86515910    -0.00500
C761        C  0.44152849  0.61942163  0.87478313    -0.04100
C762        C  0.45329613  0.60268723  0.88569629     0.02900
C763        C  0.51258099  0.62165058  0.87779358     0.09700
C764        C  0.48790347  0.65577538  0.85593101     0.35600
C765        C  0.44176347  0.58396370  0.89469042     0.39000
C766        C  0.52498306  0.60687642  0.86489588    -0.04500
C767        C  0.54814152  0.60759615  0.86525341     0.02700
C768        C  0.55909479  0.62362238  0.87794765    -0.04100
C769        C  0.54664654  0.63864429  0.89054368    -0.00300
C770        C  0.52352506  0.63728750  0.89090609    -0.02900
C771        C  0.51385906  0.59094631  0.85116322     0.36400
C772        C  0.55755748  0.65621693  0.90230796     0.40000
C773        C  0.56065254  0.59138659  0.85305717     0.39100
C774        C  0.51094576  0.65192925  0.90486468     0.36000
C775        C  0.48834323  0.58663967  0.89876330     0.36700
C776        C  0.44105526  0.65475377  0.85461030     0.40000
N777        N  0.57061946  0.57836388  0.84343266    -0.38100
N778        N  0.50493830  0.57822067  0.84028514    -0.39700
N779        N  0.56629637  0.67034579  0.91146590    -0.37400
N780        N  0.50088384  0.66357314  0.91602587    -0.39800
N781        N  0.49730315  0.67015810  0.84787986    -0.39600
N782        N  0.43148167  0.66888802  0.84625484    -0.37200
N783        N  0.43282866  0.56879563  0.90173606    -0.38300
N784        N  0.49788004  0.57305120  0.90801418    -0.39900
C785        C  0.61716401  0.52187270  0.10550786    -0.04900
C786        C  0.62217433  0.50975989  0.12452812     0.09300
C787        C  0.62711034  0.52092701  0.14413008    -0.02300
C788        C  0.62720839  0.54411370  0.14477032    -0.00500
C789        C  0.62276512  0.55663150  0.12548283    -0.04100
C790        C  0.61773751  0.54504532  0.10577834     0.02900
C791        C  0.62290361  0.48514240  0.12366197     0.09700
C792        C  0.63235069  0.50841846  0.16372035     0.35600
C793        C  0.61309565  0.55654031  0.08545499     0.39000
C794        C  0.64042722  0.47441803  0.11285683    -0.04500
C795        C  0.64091886  0.45131320  0.11141796     0.02700
C796        C  0.62430344  0.43868790  0.12150150    -0.04100
C797        C  0.60692967  0.44940702  0.13260547    -0.00300
C798        C  0.60609198  0.47254768  0.13343010    -0.02900
C799        C  0.65823179  0.48722838  0.10363135     0.36400
C800        C  0.58960224  0.43664665  0.14277756     0.40000
C801        C  0.65893643  0.44053533  0.10012766     0.39100
C802        C  0.58791122  0.48344226  0.14432733     0.36000
C803        C  0.61130450  0.51031693  0.08551460     0.36700
C804        C  0.63230347  0.55468178  0.16548261     0.40000
N805        N  0.67329749  0.43195193  0.09109338    -0.38100
N806        N  0.67242335  0.49752030  0.09635454    -0.39700
N807        N  0.57576769  0.42648616  0.15088818    -0.37400
N808        N  0.57346594  0.49214643  0.15310709    -0.39800
N809        N  0.63643187  0.49843722  0.17935151    -0.39600
N810        N  0.63628503  0.56291333  0.18211971    -0.37200
N811        N  0.60961499  0.56539928  0.06902037    -0.38300
N812        N  0.60665920  0.50106518  0.06960917    -0.39900
C813        C  0.52237058  0.61092387  0.10857209    -0.04900
C814        C  0.51022747  0.62239137  0.12454585     0.09300
C815        C  0.52125253  0.63433703  0.14095590    -0.02300
C816        C  0.54443378  0.63491464  0.14136694    -0.00500
C817        C  0.55681494  0.62322430  0.12543497    -0.04100
C818        C  0.54551075  0.61124196  0.10900037     0.02900
C819        C  0.48569845  0.62216513  0.12372792     0.09700
C820        C  0.50861808  0.64618300  0.15732163     0.35600
C821        C  0.55747216  0.59873648  0.09265371     0.39000
C822        C  0.47383299  0.60606770  0.13534738    -0.04500
C823        C  0.45072129  0.60545893  0.13399849     0.02700
C824        C  0.43935650  0.62107763  0.12111218    -0.04100
C825        C  0.45129670  0.63720581  0.10950448    -0.00300
C826        C  0.47440598  0.63768423  0.11077318    -0.02900
C827        C  0.48549127  0.59005404  0.14856573     0.36400
C828        C  0.43979476  0.65378538  0.09683573     0.40000
C829        C  0.43869427  0.58830903  0.14529884     0.39100
C830        C  0.48666511  0.65417432  0.09879065     0.36000
C831        C  0.51091765  0.59873556  0.09163937     0.36700
C832        C  0.55535696  0.64828111  0.15773914     0.40000
N833        N  0.42906855  0.57460542  0.15423314    -0.38100
N834        N  0.49482885  0.57730930  0.15912013    -0.39700
N835        N  0.43059112  0.66702633  0.08678309    -0.37400
N836        N  0.49652136  0.66728097  0.08924027    -0.39800
N837        N  0.49846511  0.65558064  0.17035127    -0.39600
N838        N  0.56399493  0.65899684  0.17080724    -0.37200
N839        N  0.56678443  0.58878346  0.07942829    -0.38300
N840        N  0.50174216  0.58905900  0.07814041    -0.39900
C841        C  0.52731503  0.35317340  0.13141626    -0.04900
C842        C  0.51556050  0.37120764  0.12278617     0.09300
C843        C  0.52706779  0.38876636  0.11302138    -0.02300
C844        C  0.55016949  0.38818918  0.11166137    -0.00500
C845        C  0.56195188  0.37040738  0.12078076    -0.04100
C846        C  0.55046605  0.35285220  0.13058054     0.02900
C847        C  0.49096935  0.37149201  0.12345243     0.09700
C848        C  0.51509006  0.40758012  0.10464919     0.35600
C849        C  0.56246177  0.33411697  0.13912402     0.39000
C850        C  0.47984763  0.37635371  0.14310547    -0.04500
C851        C  0.45665377  0.37664752  0.14375079     0.02700
C852        C  0.44412319  0.37212651  0.12449556    -0.04100
C853        C  0.45570662  0.36756513  0.10463827    -0.00300
C854        C  0.47888280  0.36707433  0.10430631    -0.02900
C855        C  0.49243048  0.38117002  0.16274521     0.36400
C856        C  0.44420709  0.36315273  0.08427460     0.40000
C857        C  0.44610554  0.38201836  0.16443434     0.39100
C858        C  0.49047856  0.36178236  0.08414584     0.36000
C859        C  0.51552069  0.33488670  0.14101070     0.36700
C860        C  0.56182132  0.40612328  0.10121760     0.40000
N861        N  0.43791700  0.38626272  0.18104076    -0.38100
N862        N  0.50249015  0.38493004  0.17840236    -0.39700
N863        N  0.43523844  0.35969510  0.06789454    -0.37400
N864        N  0.49978464  0.35760490  0.06812533    -0.39800
N865        N  0.50551248  0.42259489  0.09801294    -0.39600
N866        N  0.57109903  0.42038333  0.09280641    -0.37200
N867        N  0.57206877  0.31915501  0.14584422    -0.38300
N868        N  0.50605795  0.32034331  0.14869126    -0.39900
C869        C  0.39008435  0.47373784  0.13592592    -0.04900
C870        C  0.37380344  0.48432312  0.12329201     0.09300
C871        C  0.35824127  0.47169505  0.11176921    -0.02300
C872        C  0.35889010  0.44857417  0.11290859    -0.00500
C873        C  0.37541195  0.43787369  0.12528632    -0.04100
C874        C  0.39097238  0.45060212  0.13685018     0.02900
C875        C  0.37309403  0.50886060  0.12209088     0.09700
C876        C  0.34162397  0.48258516  0.09863143     0.35600
C877        C  0.40841866  0.43997516  0.14907652     0.39000
C878        C  0.38657952  0.52010992  0.10704042    -0.04500
C879        C  0.38644823  0.54325573  0.10633010     0.02700
C880        C  0.37244053  0.55537164  0.12043397    -0.04100
C881        C  0.35844281  0.54395616  0.13505655    -0.00300
C882        C  0.35897498  0.52081912  0.13602173    -0.02900
C883        C  0.40057491  0.50776605  0.09222696     0.36400
C884        C  0.34284143  0.55589999  0.14855166     0.40000
C885        C  0.40128836  0.55451246  0.09150267     0.39100
C886        C  0.34495565  0.50921210  0.15134864     0.36000
C887        C  0.40601052  0.48675304  0.14786873     0.36700
C888        C  0.34206692  0.43583856  0.10190908     0.40000
N889        N  0.41311467  0.56349196  0.07967213    -0.38100
N890        N  0.41166694  0.49788613  0.08036803    -0.39700
N891        N  0.33032055  0.56542415  0.15923009    -0.37400
N892        N  0.33379511  0.49989045  0.16354965    -0.39800
N893        N  0.32842568  0.49134417  0.08813620    -0.39600
N894        N  0.32859831  0.42567058  0.09322757    -0.37200
N895        N  0.42243288  0.43162337  0.15881149    -0.38300
N896        N  0.41868631  0.49720280  0.15736485    -0.39900
C897        C  0.77246094  0.63728701  0.14589251    -0.04900
C898        C  0.76055010  0.62712917  0.12884675     0.09300
C899        C  0.77189314  0.61715993  0.11127979    -0.02300
C900        C  0.79502883  0.61740866  0.11067153    -0.00500
C901        C  0.80698280  0.62790298  0.12751000    -0.04100
C902        C  0.79563646  0.63771526  0.14522233     0.02900
C903        C  0.73597849  0.62682001  0.12925766     0.09700
C904        C  0.75966188  0.60664680  0.09380196     0.35600
C905        C  0.80782421  0.64748353  0.16317416     0.39000
C906        C  0.72395555  0.64269322  0.11743168    -0.04500
C907        C  0.70081512  0.64167827  0.11669463     0.02700
C908        C  0.68951988  0.62483443  0.12798074    -0.04100
C909        C  0.70163210  0.60903112  0.13992810    -0.00300
C910        C  0.72477104  0.61006248  0.14058885    -0.02900
C911        C  0.73550741  0.66009805  0.10605238     0.36400
C912        C  0.69039838  0.59107195  0.15072156     0.40000
C913        C  0.68865646  0.65825846  0.10465547     0.39100
C914        C  0.73714328  0.59370617  0.15269752     0.36000
C915        C  0.76081277  0.64717659  0.16415134     0.36700
C916        C  0.80651504  0.60715242  0.09248896     0.40000
N917        N  0.67897899  0.67147349  0.09501706    -0.38100
N918        N  0.74481525  0.67395806  0.09703148    -0.39700
N919        N  0.68155031  0.57662164  0.15925011    -0.37400
N920        N  0.74703916  0.58069083  0.16238066    -0.39800
N921        N  0.74984618  0.59830954  0.07986672    -0.39600
N922        N  0.81568069  0.59894565  0.07800779    -0.37200
N923        N  0.81756391  0.65516208  0.17754290    -0.38300
N924        N  0.75148987  0.65501118  0.17873694    -0.39900
C925        C  0.77497726  0.64432137  0.89271224    -0.04900
C926        C  0.76245891  0.63196383  0.87771126     0.09300
C927        C  0.77318412  0.61919181  0.86163166    -0.02300
C928        C  0.79633547  0.61865042  0.86060347    -0.00500
C929        C  0.80896498  0.63115200  0.87552183    -0.04100
C930        C  0.79814387  0.64381117  0.89174854     0.02900
C931        C  0.73790390  0.63176912  0.87916048     0.09700
C932        C  0.76027566  0.60657523  0.84614226     0.35600
C933        C  0.81082282  0.65530018  0.90828623     0.39000
C934        C  0.72533821  0.64693599  0.86698423    -0.04500
C935        C  0.70218800  0.64577598  0.86721072     0.02700
C936        C  0.69144568  0.62933098  0.87958618    -0.04100
C937        C  0.70408733  0.61447368  0.89218131    -0.00300
C938        C  0.72722164  0.61581631  0.89207742    -0.02900
C939        C  0.73631319  0.66379107  0.85429100     0.36400
C940        C  0.69337332  0.59718614  0.90453135     0.40000
C941        C  0.68943309  0.66189206  0.85514742     0.39100
C942        C  0.74013846  0.60073299  0.90521565     0.36000
C943        C  0.76394319  0.65739006  0.90928073     0.36700
C944        C  0.80708127  0.60536883  0.84399996     0.40000
N945        N  0.67923159  0.67475890  0.84557422    -0.38100
N946        N  0.74510693  0.67726906  0.84423410    -0.39700
N947        N  0.68480392  0.58334084  0.91428101    -0.37400
N948        N  0.75049702  0.58880696  0.91577618    -0.39800
N949        N  0.74989011  0.59657047  0.83380937    -0.39600
N950        N  0.81561518  0.59475545  0.83074642    -0.37200
N951        N  0.82096885  0.66428103  0.92157650    -0.38300
N952        N  0.75510509  0.66783547  0.92246542    -0.39900
C953        C  0.88023906  0.64643199  0.97744587    -0.04900
C954        C  0.87023944  0.62876949  0.98840607     0.09300
C955        C  0.86033952  0.61186484  0.97619060    -0.02300
C956        C  0.86077956  0.61238790  0.95302148    -0.00500
C957        C  0.87192405  0.62950369  0.94177049    -0.04100
C958        C  0.88125313  0.64681946  0.95431727     0.02900
C959        C  0.87028137  0.62799391  0.01294786     0.09700
C960        C  0.84963241  0.59393965  0.98758723     0.35600
C961        C  0.89206829  0.66516430  0.94377875     0.39000
C962        C  0.85280548  0.63735833  0.02494736    -0.04500
C963        C  0.85340098  0.63754354  0.04809127     0.02700
C964        C  0.87115882  0.62770553  0.05936134    -0.04100
C965        C  0.88842128  0.61792174  0.04730435    -0.00300
C966        C  0.88817381  0.61847357  0.02416963    -0.02900
C967        C  0.83430172  0.64690613  0.01339512     0.36400
C968        C  0.90677757  0.60786567  0.05868104     0.40000
C969        C  0.83554167  0.64757563  0.06028983     0.39100
C970        C  0.90658403  0.60971753  0.01182800     0.36000
C971        C  0.88951971  0.66431566  0.99013611     0.36700
C972        C  0.84872755  0.59577677  0.94096599     0.40000
N973        N  0.82130807  0.65561833  0.06998788    -0.38100
N974        N  0.81952500  0.65445058  0.00411663    -0.39700
N975        N  0.92141011  0.59979432  0.06774863    -0.37400
N976        N  0.92132327  0.60293767  0.00192879    -0.39800
N977        N  0.84112717  0.57964730  0.99674370    -0.39600
N978        N  0.83895382  0.58260869  0.93143743    -0.37200
N979        N  0.90051979  0.68009117  0.93565415    -0.38300
N980        N  0.89681017  0.67857702  0.00029124    -0.39900
C981        C  0.22761145  0.62598490  0.88525882    -0.04900
C982        C  0.23845927  0.61572783  0.86749320     0.09300
C983        C  0.22600942  0.60583373  0.85067424    -0.02300
C984        C  0.20285549  0.60622114  0.85160319    -0.00500
C985        C  0.19203012  0.61680409  0.86919609    -0.04100
C986        C  0.20448072  0.62673846  0.88598654     0.02900
C987        C  0.26303031  0.61604913  0.86632625     0.09700
C988        C  0.23705265  0.59562739  0.83221204     0.35600
C989        C  0.19349987  0.63745313  0.90421193     0.39000
C990        C  0.27535882  0.59706097  0.87136328    -0.04500
C991        C  0.29851877  0.59796370  0.87180304     0.02700
C992        C  0.30944883  0.61793550  0.86754215    -0.04100
C993        C  0.29709638  0.63691710  0.86267330    -0.00300
C994        C  0.27401281  0.63582130  0.86142414    -0.02900
C995        C  0.26418099  0.57667887  0.87636679     0.36400
C996        C  0.30789749  0.65793195  0.86043885     0.40000
C997        C  0.31107174  0.57841778  0.87710255     0.39100
C998        C  0.26145750  0.65509846  0.85519761     0.36000
C999        C  0.24033877  0.63577687  0.90281623     0.36700
C1000       C  0.19015686  0.59644131  0.83401112     0.40000
N1001       N  0.32092515  0.56275677  0.88144027    -0.38100
N1002       N  0.25524972  0.56039622  0.88025810    -0.39700
N1003       N  0.31600328  0.67502325  0.85919985    -0.37400
N1004       N  0.25138672  0.67040627  0.85015034    -0.39800
N1005       N  0.24587649  0.58745203  0.81750361    -0.39600
N1006       N  0.18000866  0.58868625  0.81997377    -0.37200
N1007       N  0.18476811  0.64603179  0.91874672    -0.38300
N1008       N  0.25056840  0.64361559  0.91674468    -0.39900
C1009       C  0.02449075  0.63291350  0.85562123    -0.04900
C1010       C  0.01346637  0.62393520  0.87390242     0.09300
C1011       C  0.02564324  0.61342682  0.89057009    -0.02300
C1012       C  0.04872122  0.61193060  0.88900302    -0.00500
C1013       C  0.05981247  0.62115517  0.87083428    -0.04100
C1014       C  0.04759347  0.63153704  0.85407330     0.02900
C1015       C  0.98888398  0.62474988  0.87514451     0.09700
C1016       C  0.01435785  0.60416891  0.90935293     0.35600
C1017       C  0.05871537  0.63995361  0.83478702     0.39000
C1018       C  0.97640387  0.60719638  0.86690303    -0.04500
C1019       C  0.95323605  0.60776957  0.86790067     0.02700
C1020       C  0.94208727  0.62650626  0.87644920    -0.04100
C1021       C  0.95493916  0.64404392  0.88492745    -0.00300
C1022       C  0.97814438  0.64299469  0.88443212    -0.02900
C1023       C  0.98757383  0.58859479  0.85701533     0.36400
C1024       C  0.94460905  0.66314455  0.89466735     0.40000
C1025       C  0.94119530  0.58899440  0.85960971     0.39100
C1026       C  0.99112233  0.66072714  0.89356069     0.36000
C1027       C  0.01194146  0.64331120  0.83827218     0.36700
C1028       C  0.06108457  0.60123972  0.90633825     0.40000
N1029       N  0.93175325  0.57392119  0.85300369    -0.38100
N1030       N  0.99657014  0.57386998  0.84904482    -0.39700
N1031       N  0.93668806  0.67860600  0.90236339    -0.37400
N1032       N  0.00150591  0.67481012  0.90089082    -0.39800
N1033       N  0.00535085  0.59678558  0.92434772    -0.39600
N1034       N  0.07097262  0.59268625  0.92011888    -0.37200
N1035       N  0.06761236  0.64651595  0.81934553    -0.38300
N1036       N  0.00184407  0.65156557  0.82446509    -0.39900
C1037       C  0.22438279  0.63736125  0.10347530    -0.04900
C1038       C  0.23594281  0.62324865  0.11771676     0.09300
C1039       C  0.22428581  0.60964593  0.13232641    -0.02300
C1040       C  0.20113609  0.61034553  0.13294604    -0.00500
C1041       C  0.18941527  0.62441008  0.11860524    -0.04100
C1042       C  0.20120645  0.63778510  0.10371658     0.02900
C1043       C  0.26050888  0.62309688  0.11770520     0.09700
C1044       C  0.23621967  0.59503461  0.14686206     0.35600
C1045       C  0.18960134  0.65141818  0.08802755     0.39000
C1046       C  0.27209611  0.63747286  0.13160447    -0.04500
C1047       C  0.29525558  0.63755208  0.13156344     0.02700
C1048       C  0.30702917  0.62286108  0.11790780    -0.04100
C1049       C  0.29531957  0.60828826  0.10414372    -0.00300
C1050       C  0.27214538  0.60857844  0.10391712    -0.02900
C1051       C  0.26007000  0.65214208  0.14602096     0.36400
C1052       C  0.30703572  0.59234956  0.09085012     0.40000
C1053       C  0.30689049  0.65326673  0.14512094     0.39100
C1054       C  0.26019123  0.59380802  0.08962191     0.36000
C1055       C  0.23644978  0.65149893  0.08861879     0.36700
C1056       C  0.18947145  0.59712363  0.14893230     0.40000
N1057       N  0.31615931  0.66583600  0.15589734    -0.38100
N1058       N  0.25038994  0.66374316  0.15755035    -0.39700
N1059       N  0.31641709  0.57959731  0.08032718    -0.37400
N1060       N  0.25064118  0.58204839  0.07820036    -0.39800
N1061       N  0.24578311  0.58336609  0.15840527    -0.39600
N1062       N  0.18013434  0.58663263  0.16170771    -0.37200
N1063       N  0.18050796  0.66226733  0.07536905    -0.38300
N1064       N  0.24615803  0.66280182  0.07685617    -0.39900
C1065       C  0.97434840  0.63706826  0.10745479    -0.04900
C1066       C  0.98564479  0.62673844  0.12485492     0.09300
C1067       C  0.97369151  0.61728589  0.14227197    -0.02300
C1068       C  0.95054429  0.61824959  0.14234537    -0.00500
C1069       C  0.93920693  0.62843941  0.12484173    -0.04100
C1070       C  0.95119568  0.63792857  0.10743232     0.02900
C1071       C  0.01021025  0.62588030  0.12472229     0.09700
C1072       C  0.98526145  0.60642131  0.16001495     0.35600
C1073       C  0.93973099  0.64800203  0.08916023     0.39000
C1074       C  0.02242659  0.64105480  0.13716353    -0.04500
C1075       C  0.04558240  0.64101423  0.13613723     0.02700
C1076       C  0.05674301  0.62586861  0.12241619    -0.04100
C1077       C  0.04434263  0.61049512  0.11015627    -0.00300
C1078       C  0.02122472  0.61034998  0.11157053    -0.02900
C1079       C  0.01107187  0.65667495  0.15111433     0.36400
C1080       C  0.05515787  0.59527568  0.09537386     0.40000
C1081       C  0.05782414  0.65619193  0.14977437     0.39100
C1082       C  0.00866172  0.59411965  0.09953551     0.36000
C1083       C  0.98664813  0.64667303  0.08948649     0.36700
C1084       C  0.93839776  0.60933162  0.16078499     0.40000
N1085       N  0.06756928  0.66829036  0.16066763    -0.38100
N1086       N  0.00195944  0.66904070  0.16230705    -0.39700
N1087       N  0.06362832  0.58309578  0.08350384    -0.37400
N1088       N  0.99862662  0.58112660  0.09002996    -0.39800
N1089       N  0.99451899  0.59774178  0.17415015    -0.39600
N1090       N  0.92867839  0.60233116  0.17551777    -0.37200
N1091       N  0.93062911  0.65599478  0.07452758    -0.38300
N1092       N  0.99656090  0.65423152  0.07516836    -0.39900
C1093       C  0.11624509  0.60576355  0.01830554    -0.04900
C1094       C  0.12179943  0.62480426  0.00650071     0.09300
C1095       C  0.12685335  0.64421554  0.01791055    -0.02300
C1096       C  0.12624733  0.64473118  0.04107389    -0.00500
C1097       C  0.12153964  0.62533513  0.05332194    -0.04100
C1098       C  0.11648982  0.60579502  0.04146718     0.02900
C1099       C  0.12284018  0.62420575  0.98194162     0.09700
C1100       C  0.13313432  0.66366719  0.00567189     0.35600
C1101       C  0.11147184  0.58540208  0.05266882     0.39000
C1102       C  0.10649437  0.63469010  0.96925932    -0.04500
C1103       C  0.10756724  0.63405962  0.94615391     0.02700
C1104       C  0.12459876  0.62230950  0.93560542    -0.04100
C1105       C  0.14085745  0.61170976  0.94828748    -0.00300
C1106       C  0.14017946  0.61297582  0.97136468    -0.02900
C1107       C  0.08842489  0.64590875  0.98001606     0.36400
C1108       C  0.15864115  0.59997365  0.93758845     0.40000
C1109       C  0.09079540  0.64503817  0.93325216     0.39100
C1110       C  0.15746852  0.60290940  0.98429694     0.36000
C1111       C  0.11031248  0.58596853  0.00644677     0.36700
C1112       C  0.13070184  0.66547041  0.05186329     0.40000
N1113       N  0.07745996  0.65383234  0.92295258    -0.38100
N1114       N  0.07403256  0.65489832  0.98859429    -0.39700
N1115       N  0.17281390  0.59060837  0.92904456    -0.37400
N1116       N  0.17122375  0.59489324  0.99466962    -0.39800
N1117       N  0.13814746  0.67912259  0.99586168    -0.39600
N1118       N  0.13408878  0.68217991  0.06021360    -0.37200
N1119       N  0.10767482  0.56894216  0.06133165    -0.38300
N1120       N  0.10564516  0.57021356  0.99695253    -0.39900
C1121       C  0.64789035  0.27253143  0.13597761    -0.04900
C1122       C  0.63313516  0.25987755  0.12344701     0.09300
C1123       C  0.61798683  0.27047377  0.10947654    -0.02300
C1124       C  0.61731240  0.29361178  0.10829732    -0.00500
C1125       C  0.63193410  0.30637213  0.12101911    -0.04100
C1126       C  0.64747838  0.29566115  0.13460259     0.02900
C1127       C  0.63328165  0.23532408  0.12517895     0.09700
C1128       C  0.60283227  0.25746686  0.09656357     0.35600
C1129       C  0.66353138  0.30839027  0.14670886     0.39000
C1130       C  0.61830368  0.22463001  0.13920380    -0.04500
C1131       C  0.61805761  0.20150291  0.14055229     0.02700
C1132       C  0.63249175  0.18878542  0.12745433    -0.04100
C1133       C  0.64759735  0.19961267  0.11347964    -0.00300
C1134       C  0.64812934  0.22277135  0.11257801    -0.02900
C1135       C  0.60311083  0.23753386  0.15225523     0.36400
C1136       C  0.66200899  0.18701363  0.09928587     0.40000
C1137       C  0.60335811  0.19088884  0.15598349     0.39100
C1138       C  0.66385307  0.23377547  0.09850903     0.36000
C1139       C  0.66327886  0.26168111  0.15055282     0.36700
C1140       C  0.60095720  0.30423462  0.09462364     0.40000
N1141       N  0.59169643  0.18241451  0.16833499    -0.38100
N1142       N  0.59095969  0.24788722  0.16258154    -0.39700
N1143       N  0.67345831  0.17696121  0.08790979    -0.37400
N1144       N  0.67645492  0.24259525  0.08738774    -0.39800
N1145       N  0.59073860  0.24702756  0.08633303    -0.39600
N1146       N  0.58789353  0.31272701  0.08374121    -0.37200
N1147       N  0.67639547  0.31855569  0.15626030    -0.38300
N1148       N  0.67548278  0.25298140  0.16223473    -0.39900
C1149       C  0.61291877  0.27409229  0.86608327    -0.04900
C1150       C  0.62921593  0.26313713  0.87838447     0.09300
C1151       C  0.64475229  0.27535897  0.89036987    -0.02300
C1152       C  0.64400822  0.29846720  0.89011717    -0.00500
C1153       C  0.62779810  0.30949663  0.87767495    -0.04100
C1154       C  0.61230189  0.29722657  0.86557451     0.02900
C1155       C  0.63004566  0.23863400  0.87882547     0.09700
C1156       C  0.66155701  0.26405593  0.90291149     0.35600
C1157       C  0.59530197  0.30838748  0.85314693     0.39000
C1158       C  0.64120713  0.22705635  0.86214696    -0.04500
C1159       C  0.64214593  0.20392533  0.86265347     0.02700
C1160       C  0.63183619  0.19228450  0.87985109    -0.04100
C1161       C  0.62104716  0.20395944  0.89677027    -0.00300
C1162       C  0.62005414  0.22705533  0.89617635    -0.02900
C1163       C  0.65151910  0.23903418  0.84436483     0.36400
C1164       C  0.61146115  0.19221107  0.91512814     0.40000
C1165       C  0.65306602  0.19212935  0.84507493     0.39100
C1166       C  0.60860566  0.23897463  0.91332909     0.36000
C1167       C  0.59660003  0.26149644  0.85423376     0.36700
C1168       C  0.66034314  0.31087281  0.90218570     0.40000
N1169       N  0.66176054  0.18273847  0.83102775    -0.38100
N1170       N  0.65967309  0.24868290  0.83019513    -0.39700
N1171       N  0.60393045  0.18279333  0.92979298    -0.37400
N1172       N  0.59945427  0.24851986  0.92697474    -0.39800
N1173       N  0.67492382  0.25496305  0.91289844    -0.39600
N1174       N  0.67336045  0.32078063  0.91180396    -0.37200
N1175       N  0.58178111  0.31735321  0.84324490    -0.38300
N1176       N  0.58353914  0.25143074  0.84484614    -0.39900
C1177       C  0.61918112  0.10735795  0.97954563    -0.04900
C1178       C  0.63240194  0.12211825  0.99147697     0.09300
C1179       C  0.64529728  0.13764584  0.98014597    -0.02300
C1180       C  0.64455549  0.13879070  0.95702083    -0.00500
C1181       C  0.63097798  0.12428337  0.94504956    -0.04100
C1182       C  0.61843765  0.10843102  0.95643004     0.02900
C1183       C  0.63200200  0.12193679  0.01606327     0.09700
C1184       C  0.65929477  0.15247465  0.99237921     0.35600
C1185       C  0.60520152  0.09279414  0.94433750     0.39000
C1186       C  0.64466657  0.10658565  0.02792280    -0.04500
C1187       C  0.64398953  0.10634821  0.05109086     0.02700
C1188       C  0.63083486  0.12170701  0.06259297    -0.04100
C1189       C  0.61819440  0.13710301  0.05060938    -0.00300
C1190       C  0.61869892  0.13710154  0.02746569    -0.02900
C1191       C  0.65837054  0.09101347  0.01620665     0.36400
C1192       C  0.60516229  0.15346656  0.06203574     0.40000
C1193       C  0.65624197  0.08975618  0.06301839     0.39100
C1194       C  0.60548157  0.15272597  0.01526637     0.36000
C1195       C  0.60633973  0.09103410  0.99113402     0.36700
C1196       C  0.65717152  0.15545107  0.94563641     0.40000
N1197       N  0.66594658  0.07648269  0.07254765    -0.38100
N1198       N  0.66928326  0.07859679  0.00681940    -0.39700
N1199       N  0.59478763  0.16653217  0.07114987    -0.37400
N1200       N  0.59497537  0.16515025  0.00545191    -0.39800
N1201       N  0.67046804  0.16425672  0.00219596    -0.39600
N1202       N  0.66718733  0.16877108  0.93655473    -0.37200
N1203       N  0.59468576  0.08032799  0.93463807    -0.38300
N1204       N  0.59619809  0.07795445  0.00041564    -0.39900
C1205       C  0.61479753  0.77470642  0.89399264    -0.04900
C1206       C  0.62689261  0.76302608  0.87807658     0.09300
C1207       C  0.63929826  0.77454548  0.86231171    -0.02300
C1208       C  0.63928888  0.79770927  0.86218744    -0.00500
C1209       C  0.62686396  0.80948059  0.87791988    -0.04100
C1210       C  0.61490552  0.79783953  0.89404499     0.02900
C1211       C  0.62642494  0.73849473  0.87793085     0.09700
C1212       C  0.65191472  0.76246813  0.84611307     0.35600
C1213       C  0.60334798  0.80962511  0.91123325     0.39000
C1214       C  0.61047041  0.72730848  0.86546542    -0.04500
C1215       C  0.60944535  0.70418971  0.86597145     0.02700
C1216       C  0.62471654  0.69211036  0.87861243    -0.04100
C1217       C  0.64079358  0.70337287  0.89097854    -0.00300
C1218       C  0.64155539  0.72649215  0.89070486    -0.02900
C1219       C  0.59508408  0.73968778  0.85215108     0.36400
C1220       C  0.65697824  0.69118212  0.90354422     0.40000
C1221       C  0.59209437  0.69290634  0.85424511     0.39100
C1222       C  0.65796248  0.73800377  0.90349949     0.36000
C1223       C  0.60216898  0.76281661  0.91028117     0.36700
C1224       C  0.65150294  0.80935415  0.84540757     0.40000
N1225       N  0.57816041  0.68388595  0.84503577    -0.38100
N1226       N  0.58291064  0.74963430  0.84148316    -0.39700
N1227       N  0.66985399  0.68141392  0.91353855    -0.37400
N1228       N  0.67104550  0.74720256  0.91371659    -0.39800
N1229       N  0.66196261  0.75276842  0.83322489    -0.39600
N1230       N  0.66120319  0.81862991  0.83197703    -0.37200
N1231       N  0.59426277  0.81902342  0.92502572    -0.38300
N1232       N  0.59208428  0.75325680  0.92321445    -0.39900
C1233       C  0.60306371  0.97736366  0.88306967    -0.04900
C1234       C  0.62188731  0.98930920  0.87705188     0.09300
C1235       C  0.64097784  0.97798828  0.87053520    -0.02300
C1236       C  0.64170423  0.95483500  0.87099729    -0.00500
C1237       C  0.62274111  0.94246174  0.87690134    -0.04100
C1238       C  0.60321553  0.95416807  0.88250879     0.02900
C1239       C  0.62194054  0.01391843  0.87797689     0.09700
C1240       C  0.65993302  0.99034778  0.86307905     0.35600
C1241       C  0.58309142  0.94272568  0.88803016     0.39000
C1242       C  0.63358611  0.02479760  0.89478607    -0.04500
C1243       C  0.63517151  0.04788715  0.89480787     0.02700
C1244       C  0.62454568  0.06032667  0.87836956    -0.04100
C1245       C  0.61201866  0.04949071  0.86213950    -0.00300
C1246       C  0.61102700  0.02635379  0.86173937    -0.02900
C1247       C  0.64373381  0.01214959  0.91222199     0.36400
C1248       C  0.60052820  0.06212168  0.84552637     0.40000
C1249       C  0.64717412  0.05887109  0.91217228     0.39100
C1250       C  0.59903951  0.01529830  0.84443128     0.36000
C1251       C  0.58351384  0.98906382  0.89014817     0.36700
C1252       C  0.66220143  0.94414792  0.86510669     0.40000
N1253       N  0.65672300  0.06764952  0.92602672    -0.38100
N1254       N  0.65174055  0.00200056  0.92613678    -0.39700
N1255       N  0.59127681  0.07224353  0.83237738    -0.37400
N1256       N  0.58943255  0.00646585  0.83065445    -0.39800
N1257       N  0.67496019  0.00026157  0.85705615    -0.39600
N1258       N  0.67866399  0.93583080  0.86046609    -0.37200
N1259       N  0.56690089  0.93377566  0.89232428    -0.38300
N1260       N  0.56794528  0.99840962  0.89578846    -0.39900
C1261       C  0.60557602  0.72417817  0.11680615    -0.04900
C1262       C  0.62250130  0.73589576  0.12735809     0.09300
C1263       C  0.63961111  0.72438694  0.13796200    -0.02300
C1264       C  0.63963048  0.70124771  0.13829190    -0.00500
C1265       C  0.62271906  0.68950878  0.12767801    -0.04100
C1266       C  0.60567750  0.70104575  0.11694512     0.02900
C1267       C  0.62208481  0.76042733  0.12768700     0.09700
C1268       C  0.65735826  0.73642582  0.14824318     0.35600
C1269       C  0.58781205  0.68911062  0.10671377     0.39000
C1270       C  0.61473223  0.77163439  0.14658687    -0.04500
C1271       C  0.61485631  0.79476686  0.14717794     0.02700
C1272       C  0.62157853  0.80678679  0.12857192    -0.04100
C1273       C  0.62868255  0.79557709  0.10957046    -0.00300
C1274       C  0.62911600  0.77245118  0.10919865    -0.02900
C1275       C  0.60688267  0.75927655  0.16534700     0.36400
C1276       C  0.63527341  0.80787821  0.09028049     0.40000
C1277       C  0.60900909  0.80611260  0.16725138     0.39100
C1278       C  0.63681701  0.76098377  0.08981395     0.36000
C1279       C  0.58800259  0.73599859  0.10589753     0.36700
C1280       C  0.65733829  0.68952173  0.14910938     0.40000
N1281       N  0.60462290  0.81492502  0.18348574    -0.38100
N1282       N  0.60054111  0.74932815  0.18021849    -0.39700
N1283       N  0.64047300  0.81771159  0.07489671    -0.37400
N1284       N  0.64293792  0.75182754  0.07433790    -0.39800
N1285       N  0.67152833  0.74607594  0.15637951    -0.39600
N1286       N  0.67142955  0.68014434  0.15775654    -0.37200
N1287       N  0.57353517  0.67955762  0.09864368    -0.38300
N1288       N  0.57405993  0.74548975  0.09714040    -0.39900
C1289       C  0.63652599  0.02089215  0.14524877    -0.04900
C1290       C  0.62463129  0.00996565  0.12867887     0.09300
C1291       C  0.61349472  0.02226980  0.11252466    -0.02300
C1292       C  0.61434999  0.04539877  0.11283392    -0.00500
C1293       C  0.62645831  0.05638989  0.12928954    -0.04100
C1294       C  0.63746686  0.04402491  0.14555694     0.02900
C1295       C  0.62396323  0.98541811  0.12811884     0.09700
C1296       C  0.60121137  0.01103998  0.09552620     0.35600
C1297       C  0.64919913  0.05509973  0.16304030     0.39000
C1298       C  0.60957133  0.97385807  0.14207146    -0.04500
C1299       C  0.60903119  0.95071890  0.14161620     0.02700
C1300       C  0.62270330  0.93895629  0.12693952    -0.04100
C1301       C  0.63694104  0.95063248  0.11280870    -0.00300
C1302       C  0.63771387  0.97374979  0.11357949    -0.02900
C1303       C  0.59542794  0.98584767  0.15702576     0.36400
C1304       C  0.65031966  0.93900103  0.09691879     0.40000
C1305       C  0.59496672  0.93904317  0.15687687     0.39100
C1306       C  0.65281034  0.98560985  0.09950901     0.36000
C1307       C  0.64777668  0.00824592  0.16199200     0.36700
C1308       C  0.60327656  0.05783760  0.09580267     0.40000
N1309       N  0.58380929  0.92969298  0.16906160    -0.38100
N1310       N  0.58419821  0.99544637  0.16898699    -0.39700
N1311       N  0.66099962  0.92990870  0.08410258    -0.37400
N1312       N  0.66487147  0.99509215  0.08833380    -0.39800
N1313       N  0.59148382  0.00201641  0.08196134    -0.39600
N1314       N  0.59443660  0.06776349  0.08222757    -0.37200
N1315       N  0.65849629  0.06395081  0.17701597    -0.38300
N1316       N  0.65665572  0.99808548  0.17536355    -0.39900
C1317       C  0.60413983  0.86520938  0.02567849    -0.04900
C1318       C  0.62330996  0.87119517  0.01427519     0.09300
C1319       C  0.64240368  0.87658055  0.02606157    -0.02300
C1320       C  0.64245979  0.87603298  0.04920823    -0.00500
C1321       C  0.62294817  0.87083081  0.06106277    -0.04100
C1322       C  0.60377153  0.86522897  0.04885699     0.02900
C1323       C  0.62342442  0.87204559  0.98971478     0.09700
C1324       C  0.66207013  0.88297760  0.01420425     0.35600
C1325       C  0.58349707  0.85908682  0.05975387     0.39000
C1326       C  0.61341475  0.88979936  0.97868967    -0.04500
C1327       C  0.61391032  0.89088545  0.95558924     0.02700
C1328       C  0.62477264  0.87442737  0.94336728    -0.04100
C1329       C  0.63498509  0.85676326  0.95442121    -0.00300
C1330       C  0.63405317  0.85544055  0.97751080    -0.02900
C1331       C  0.60282938  0.90710433  0.99118629     0.36400
C1332       C  0.64600630  0.83964802  0.94203135     0.40000
C1333       C  0.60384543  0.90937045  0.94446891     0.39100
C1334       C  0.64382910  0.83687802  0.98878113     0.36000
C1335       C  0.58473825  0.85886240  0.01339850     0.36700
C1336       C  0.66289157  0.88094037  0.06039502     0.40000
N1337       N  0.59582974  0.92421517  0.93574846    -0.38100
N1338       N  0.59436648  0.92088470  0.00116999    -0.39700
N1339       N  0.65483689  0.82601271  0.93216180    -0.37400
N1340       N  0.65159602  0.82209459  0.99784139    -0.39800
N1341       N  0.67771033  0.88805410  0.00470376    -0.39600
N1342       N  0.67936813  0.88465793  0.06907668    -0.37200
N1343       N  0.56719964  0.85428125  0.06825253    -0.38300
N1344       N  0.56930970  0.85379305  0.00356700    -0.39900
C1345       C  0.22584719  0.36116156  0.85507558    -0.04900
C1346       C  0.23854750  0.37460382  0.86892992     0.09300
C1347       C  0.22801329  0.38934250  0.88336853    -0.02300
C1348       C  0.20485223  0.39025829  0.88438609    -0.00500
C1349       C  0.19201889  0.37636100  0.87092304    -0.04100
C1350       C  0.20270162  0.36206995  0.85597072     0.02900
C1351       C  0.26310726  0.37299107  0.86859019     0.09700
C1352       C  0.24112605  0.40348305  0.89728291     0.35600
C1353       C  0.18993795  0.34881211  0.84088057     0.39000
C1354       C  0.27547819  0.38612884  0.85413371    -0.04500
C1355       C  0.29865936  0.38509757  0.85433089     0.02700
C1356       C  0.30968273  0.37062014  0.86886388    -0.04100
C1357       C  0.29710411  0.35703954  0.88292723    -0.00300
C1358       C  0.27396016  0.35835432  0.88285719    -0.02900
C1359       C  0.26423800  0.40077118  0.83908960     0.36400
C1360       C  0.30786424  0.34114764  0.89704173     0.40000
C1361       C  0.31105183  0.39958937  0.84009236     0.39100
C1362       C  0.26119447  0.34454883  0.89743876     0.36000
C1363       C  0.23669377  0.34641651  0.83983395     0.36700
C1364       C  0.19433394  0.40509185  0.89977035     0.40000
N1365       N  0.32088981  0.41119056  0.82873727    -0.38100
N1366       N  0.25519027  0.41236208  0.82705793    -0.39700
N1367       N  0.31646933  0.32845636  0.90826475    -0.37400
N1368       N  0.25096974  0.33355137  0.90904551    -0.39800
N1369       N  0.25166264  0.41475268  0.90832495    -0.39600
N1370       N  0.18595163  0.41697124  0.91201037    -0.37200
N1371       N  0.17974676  0.33830144  0.82880740    -0.38300
N1372       N  0.24538803  0.33469483  0.82766232    -0.39900
C1373       C  0.27552895  0.35921794  0.11345721    -0.04900
C1374       C  0.26443697  0.37296343  0.12841022     0.09300
C1375       C  0.27651839  0.38583967  0.14330218    -0.02300
C1376       C  0.29967657  0.38533028  0.14299846    -0.00500
C1377       C  0.31095658  0.37172661  0.12782555    -0.04100
C1378       C  0.29867974  0.35854714  0.11314384     0.02900
C1379       C  0.23993190  0.37434055  0.12801355     0.09700
C1380       C  0.26501473  0.39982590  0.15879149     0.35600
C1381       C  0.30974103  0.34383424  0.09800694     0.39000
C1382       C  0.22729201  0.36142198  0.14243105    -0.04500
C1383       C  0.20416432  0.36262741  0.14187024     0.02700
C1384       C  0.19352011  0.37650121  0.12654511    -0.04100
C1385       C  0.20629635  0.38954331  0.11221512    -0.00300
C1386       C  0.22941070  0.38851977  0.11304931    -0.02900
C1387       C  0.23816751  0.34680932  0.15776711     0.36400
C1388       C  0.19575613  0.40350422  0.09606033     0.40000
C1389       C  0.19139723  0.35013468  0.15761230     0.39100
C1390       C  0.24247866  0.40195497  0.09838534     0.36000
C1391       C  0.26299509  0.34571865  0.09840745     0.36700
C1392       C  0.31176724  0.39951706  0.15778551     0.40000
N1393       N  0.18120776  0.34024659  0.17021576    -0.38100
N1394       N  0.24688704  0.33513554  0.16995764    -0.39700
N1395       N  0.18741260  0.41465224  0.08314238    -0.37400
N1396       N  0.25295817  0.41263998  0.08671236    -0.39800
N1397       N  0.25579108  0.41092022  0.17115805    -0.39600
N1398       N  0.32138701  0.41083886  0.16959493    -0.37200
N1399       N  0.31853655  0.33211874  0.08590227    -0.38300
N1400       N  0.25292425  0.33497828  0.08643751    -0.39900
C1401       C  0.12352016  0.35773353  0.02234432    -0.04900
C1402       C  0.12732325  0.37712581  0.01043227     0.09300
C1403       C  0.13193821  0.39668423  0.02179228    -0.02300
C1404       C  0.13226985  0.39707644  0.04500383    -0.00500
C1405       C  0.12817375  0.37761898  0.05737677    -0.04100
C1406       C  0.12410487  0.35779880  0.04554129     0.02900
C1407       C  0.12681165  0.37688003  0.98578121     0.09700
C1408       C  0.13671676  0.41645238  0.00940733     0.35600
C1409       C  0.12046597  0.33714665  0.05679653     0.39000
C1410       C  0.10817478  0.38469960  0.97438373    -0.04500
C1411       C  0.10786588  0.38478367  0.95120259     0.02700
C1412       C  0.12606687  0.37672210  0.93927246    -0.04100
C1413       C  0.14454482  0.36855639  0.95066319    -0.00300
C1414       C  0.14497157  0.36877509  0.97382408    -0.02900
C1415       C  0.08918761  0.39234294  0.98657163     0.36400
C1416       C  0.16334435  0.36036846  0.93850758     0.40000
C1417       C  0.08857638  0.39261104  0.93961196     0.39100
C1418       C  0.16414902  0.36074337  0.98542663     0.36000
C1419       C  0.11898597  0.33754215  0.01054845     0.36700
C1420       C  0.13727146  0.41772096  0.05573776     0.40000
N1421       N  0.07318131  0.39881887  0.93035509    -0.38100
N1422       N  0.07402648  0.39838216  0.99632258    -0.39700
N1423       N  0.17830701  0.35383953  0.92876238    -0.37400
N1424       N  0.17940193  0.35429392  0.99474545    -0.39800
N1425       N  0.14058116  0.43216476  0.99947795    -0.39600
N1426       N  0.14122796  0.43430363  0.06407681    -0.37200
N1427       N  0.11768391  0.32053674  0.06557562    -0.38300
N1428       N  0.11545287  0.32146812  0.00110512    -0.39900
C1429       C  0.77405880  0.38633268  0.86104847    -0.04900
C1430       C  0.76330961  0.37471104  0.87793024     0.09300
C1431       C  0.77572664  0.36326323  0.89374886    -0.02300
C1432       C  0.79884529  0.36344766  0.89274999    -0.00500
C1433       C  0.80967085  0.37506612  0.87584703    -0.04100
C1434       C  0.79719229  0.38654901  0.86000172     0.02900
C1435       C  0.73880541  0.37445111  0.87897719     0.09700
C1436       C  0.76462971  0.35130911  0.91106546     0.35600
C1437       C  0.80810202  0.39802797  0.84222415     0.39000
C1438       C  0.72693784  0.35847407  0.86723918    -0.04500
C1439       C  0.70379460  0.35862594  0.86762265     0.02700
C1440       C  0.69236923  0.37479695  0.87979525    -0.04100
C1441       C  0.70434105  0.39031497  0.89218348    -0.00300
C1442       C  0.72750342  0.39018298  0.89166834    -0.02900
C1443       C  0.73863701  0.34180800  0.85487189     0.36400
C1444       C  0.69291459  0.40682294  0.90498650     0.40000
C1445       C  0.69176761  0.34165277  0.85606255     0.39100
C1446       C  0.73980548  0.40633644  0.90405242     0.36000
C1447       C  0.76122837  0.39794050  0.84468871     0.36700
C1448       C  0.81149295  0.35224746  0.90954863     0.40000
N1449       N  0.68216562  0.32807751  0.84692629    -0.38100
N1450       N  0.74803451  0.32850469  0.84507309    -0.39700
N1451       N  0.68389742  0.41999899  0.91529361    -0.37400
N1452       N  0.74968979  0.41917480  0.91391968    -0.39800
N1453       N  0.75573345  0.34177930  0.92486074    -0.39600
N1454       N  0.82163787  0.34336914  0.92293523    -0.37200
N1455       N  0.81680966  0.40714915  0.82803056    -0.38300
N1456       N  0.75094163  0.40715592  0.83164333    -0.39900
C1457       C  0.97665710  0.36258772  0.85636631    -0.04900
C1458       C  0.98841836  0.37679860  0.87031217     0.09300
C1459       C  0.97695877  0.39057664  0.88496992    -0.02300
C1460       C  0.95384840  0.38980602  0.88610124    -0.00500
C1461       C  0.94194553  0.37568666  0.87204791    -0.04100
C1462       C  0.95349047  0.36210986  0.85710853     0.02900
C1463       C  0.01298472  0.37645920  0.87047154     0.09700
C1464       C  0.98906352  0.40550566  0.89898664     0.35600
C1465       C  0.94159069  0.34797099  0.84211826     0.39000
C1466       C  0.02501518  0.38906566  0.85525500    -0.04500
C1467       C  0.04819127  0.38908506  0.85591693     0.02700
C1468       C  0.05945976  0.37660779  0.87196724    -0.04100
C1469       C  0.04732071  0.36374698  0.88697970    -0.00300
C1470       C  0.02418529  0.36369447  0.88620625    -0.02900
C1471       C  0.01347894  0.40199865  0.83892975     0.36400
C1472       C  0.05856671  0.35097936  0.90364484     0.40000
C1473       C  0.06041193  0.40125785  0.83950679     0.39100
C1474       C  0.01177793  0.35054868  0.90168152     0.36000
C1475       C  0.98848660  0.34839900  0.84133328     0.36700
C1476       C  0.94243421  0.40278462  0.90250184     0.40000
N1477       N  0.07016557  0.41085611  0.82634643    -0.38100
N1478       N  0.00424914  0.41229269  0.82589963    -0.39700
N1479       N  0.06755017  0.34079743  0.91693158    -0.37400
N1480       N  0.00178801  0.34010845  0.91398685    -0.39800
N1481       N  0.99876948  0.41744544  0.91007730    -0.39600
N1482       N  0.93330616  0.41300231  0.91567999    -0.37200
N1483       N  0.93210876  0.33669305  0.83016805    -0.38300
N1484       N  0.99798617  0.33710375  0.82935194    -0.39900
C1485       C  0.77665292  0.38961684  0.10516755    -0.04900
C1486       C  0.76470830  0.37916496  0.12199880     0.09300
C1487       C  0.77593035  0.36931962  0.13969460    -0.02300
C1488       C  0.79905128  0.36982891  0.14053515    -0.00500
C1489       C  0.81105428  0.38019736  0.12364398    -0.04100
C1490       C  0.79979022  0.39012217  0.10595627     0.02900
C1491       C  0.74021306  0.37842614  0.12113995     0.09700
C1492       C  0.76359044  0.35868669  0.15703871     0.35600
C1493       C  0.81202281  0.40019279  0.08818590     0.39000
C1494       C  0.72954759  0.36063034  0.11092679    -0.04500
C1495       C  0.70642802  0.35950975  0.11080626     0.02700
C1496       C  0.69388436  0.37617997  0.12097566    -0.04100
C1497       C  0.70459328  0.39402266  0.13115334    -0.00300
C1498       C  0.72771205  0.39519884  0.13109216    -0.02900
C1499       C  0.74244455  0.34338968  0.10072874     0.36400
C1500       C  0.69183453  0.41137632  0.14135726     0.40000
C1501       C  0.69556764  0.34076160  0.10097165     0.39100
C1502       C  0.73872745  0.41367289  0.14122725     0.36000
C1503       C  0.76506774  0.39971762  0.08699188     0.36700
C1504       C  0.81045503  0.36017467  0.15908056     0.40000
N1505       N  0.68686888  0.32578830  0.09321634    -0.38100
N1506       N  0.75277988  0.32965736  0.09260762    -0.39700
N1507       N  0.68166295  0.42521100  0.14951615    -0.37400
N1508       N  0.74758088  0.42841458  0.14923969    -0.39800
N1509       N  0.75367303  0.35021908  0.17083510    -0.39600
N1510       N  0.81954488  0.35253405  0.17390497    -0.37200
N1511       N  0.82180387  0.40816261  0.07399551    -0.38300
N1512       N  0.75578261  0.40777212  0.07251278    -0.39900
C1513       C  0.97870891  0.36207742  0.13434417    -0.04900
C1514       C  0.99045506  0.38063480  0.12733196     0.09300
C1515       C  0.97905604  0.39914876  0.11955673    -0.02300
C1516       C  0.95589770  0.39942325  0.11930755    -0.00500
C1517       C  0.94377549  0.38038023  0.12535100    -0.04100
C1518       C  0.95564937  0.36142519  0.13230779     0.02900
C1519       C  0.01498171  0.38018151  0.12681728     0.09700
C1520       C  0.99131757  0.41785281  0.11137772     0.35600
C1521       C  0.94461455  0.34091129  0.13716738     0.39000
C1522       C  0.02589516  0.36870065  0.10991417    -0.04500
C1523       C  0.04900337  0.36846843  0.10901602     0.02700
C1524       C  0.06134199  0.37999986  0.12486696    -0.04100
C1525       C  0.05038262  0.39167591  0.14169638    -0.00300
C1526       C  0.02725092  0.39158888  0.14276465    -0.02900
C1527       C  0.01323415  0.35740532  0.09323358     0.36400
C1528       C  0.06288347  0.40330386  0.15827770     0.40000
C1529       C  0.06003297  0.35696967  0.09130671     0.39100
C1530       C  0.01602031  0.40306956  0.16035519     0.36000
C1531       C  0.99048849  0.34365855  0.14386610     0.36700
C1532       C  0.94496905  0.41944250  0.11244723     0.40000
N1533       N  0.06878237  0.34781573  0.07714184    -0.38100
N1534       N  0.00302709  0.34843853  0.07998827    -0.39700
N1535       N  0.07285930  0.41258776  0.17148629    -0.37400
N1536       N  0.00704592  0.41222621  0.17438133    -0.39800
N1537       N  0.00115155  0.43266279  0.10475088    -0.39600
N1538       N  0.93654811  0.43567566  0.10726562    -0.37200
N1539       N  0.93605767  0.32438390  0.14089049    -0.38300
N1540       N  0.99988241  0.32910373  0.15168577    -0.39900
C1541       C  0.89074487  0.36539866  0.97569818    -0.04900
C1542       C  0.87521636  0.37868520  0.98666702     0.09300
C1543       C  0.85986665  0.39089968  0.97433324    -0.02300
C1544       C  0.85984254  0.38961954  0.95119475    -0.00500
C1545       C  0.87570089  0.37668732  0.94013831    -0.04100
C1546       C  0.89110880  0.36450657  0.95253695     0.02900
C1547       C  0.87508436  0.37979247  0.01127793     0.09700
C1548       C  0.84423163  0.40497673  0.98551058     0.35600
C1549       C  0.90777567  0.35153720  0.94148949     0.39000
C1550       C  0.88952434  0.39404540  0.02234416    -0.04500
C1551       C  0.88999170  0.39457996  0.04552415     0.02700
C1552       C  0.87591502  0.38086003  0.05793492    -0.04100
C1553       C  0.86097006  0.36705421  0.04669740    -0.00300
C1554       C  0.86071417  0.36641603  0.02351354    -0.02900
C1555       C  0.90404509  0.40808492  0.00975504     0.36400
C1556       C  0.84520546  0.35407670  0.05892079     0.40000
C1557       C  0.90550711  0.40887278  0.05640889     0.39100
C1558       C  0.84572105  0.35188145  0.01214288     0.36000
C1559       C  0.90645616  0.35273821  0.98834357     0.36700
C1560       C  0.84285913  0.40087181  0.93882216     0.40000
N1561       N  0.91800266  0.42044883  0.06472938    -0.38100
N1562       N  0.91560671  0.41924923  0.99965760    -0.39700
N1563       N  0.83255044  0.34382662  0.06867578    -0.37400
N1564       N  0.83380035  0.34029847  0.00299495    -0.39800
N1565       N  0.83184533  0.41630399  0.99443968    -0.39600
N1566       N  0.82921825  0.40965654  0.92892236    -0.37200
N1567       N  0.92107673  0.34122186  0.93264402    -0.38300
N1568       N  0.91896713  0.34266852  0.99849950    -0.39900
C1569       C  0.36179995  0.76943946  0.13559463    -0.04900
C1570       C  0.37458708  0.75874733  0.11949791     0.09300
C1571       C  0.38702160  0.77124924  0.10454278    -0.02300
C1572       C  0.38700479  0.79435808  0.10590551    -0.00500
C1573       C  0.37466721  0.80512477  0.12241859    -0.04100
C1574       C  0.36178332  0.79255331  0.13704204     0.02900
C1575       C  0.37504650  0.73422104  0.11842954     0.09700
C1576       C  0.39975401  0.76024716  0.08768037     0.35600
C1577       C  0.34887601  0.80333111  0.15391790     0.39000
C1578       C  0.35979681  0.72287741  0.10525284    -0.04500
C1579       C  0.35964674  0.69972355  0.10498022     0.02700
C1580       C  0.37489236  0.68777909  0.11780881    -0.04100
C1581       C  0.39071941  0.69921056  0.13031529    -0.00300
C1582       C  0.39065760  0.72235289  0.13075910    -0.02900
C1583       C  0.34419882  0.73511543  0.09205998     0.36400
C1584       C  0.40764195  0.68718610  0.14202432     0.40000
C1585       C  0.34338304  0.68823170  0.09196276     0.39100
C1586       C  0.40667564  0.73404549  0.14388270     0.36000
C1587       C  0.34873233  0.75655151  0.15072545     0.36700
C1588       C  0.39896309  0.80705056  0.08969758     0.40000
N1589       N  0.33044496  0.67902879  0.08156702    -0.38100
N1590       N  0.33182154  0.74492660  0.08149518    -0.39700
N1591       N  0.42123290  0.67757005  0.15119534    -0.37400
N1592       N  0.41942494  0.74343526  0.15433916    -0.39800
N1593       N  0.40987258  0.75141762  0.07423609    -0.39600
N1594       N  0.40838934  0.81716867  0.07668688    -0.37200
N1595       N  0.33854369  0.81195818  0.16733266    -0.38300
N1596       N  0.33831508  0.74620076  0.16275379    -0.39900
C1597       C  0.36040517  0.76663738  0.88196561    -0.04900
C1598       C  0.37597819  0.75625897  0.86832529     0.09300
C1599       C  0.39060024  0.76904625  0.85580671    -0.02300
C1600       C  0.38963391  0.79216218  0.85682770    -0.00500
C1601       C  0.37441256  0.80270738  0.87097182    -0.04100
C1602       C  0.35977732  0.78973104  0.88353570     0.02900
C1603       C  0.37721330  0.73174176  0.86753016     0.09700
C1604       C  0.40676922  0.75831041  0.84197588     0.35600
C1605       C  0.34454742  0.79997828  0.89873840     0.39000
C1606       C  0.36640634  0.72006440  0.85078048    -0.04500
C1607       C  0.36702647  0.69690618  0.85045156     0.02700
C1608       C  0.37761329  0.68517664  0.86758742    -0.04100
C1609       C  0.38930574  0.69709237  0.88378889    -0.00300
C1610       C  0.38916547  0.72024043  0.88364053    -0.02900
C1611       C  0.35436483  0.73197380  0.83403535     0.36400
C1612       C  0.40238915  0.68565931  0.90008839     0.40000
C1613       C  0.35653942  0.68537592  0.83247749     0.39100
C1614       C  0.40149734  0.73236251  0.89998279     0.36000
C1615       C  0.34505497  0.75342861  0.89446219     0.36700
C1616       C  0.40385930  0.80498772  0.84269696     0.40000
N1617       N  0.34821716  0.67625917  0.81806026    -0.38100
N1618       N  0.34472194  0.74149937  0.82072415    -0.39700
N1619       N  0.41291185  0.67657128  0.91303926    -0.37400
N1620       N  0.41138970  0.74211630  0.91290493    -0.39800
N1621       N  0.41968704  0.74968316  0.83102099    -0.39600
N1622       N  0.41516100  0.81519808  0.83136092    -0.37200
N1623       N  0.33242197  0.80812611  0.91089931    -0.38300
N1624       N  0.33279899  0.74283296  0.90435410    -0.39900
C1625       C  0.38945979  0.88200869  0.02263335    -0.04900
C1626       C  0.37625786  0.86629326  0.01192584     0.09300
C1627       C  0.36362533  0.85153397  0.02450598    -0.02300
C1628       C  0.36385465  0.85275904  0.04763812    -0.00500
C1629       C  0.37652302  0.86897091  0.05837457    -0.04100
C1630       C  0.38943442  0.88351193  0.04574507     0.02900
C1631       C  0.37512849  0.86591324  0.98734231     0.09700
C1632       C  0.35039088  0.83506518  0.01360273     0.35600
C1633       C  0.40206849  0.90058586  0.05644900     0.39000
C1634       C  0.38718963  0.85025620  0.97521695    -0.04500
C1635       C  0.38679909  0.85063583  0.95203482     0.02700
C1636       C  0.37429121  0.86668552  0.94081507    -0.04100
C1637       C  0.36204895  0.88220472  0.95302417    -0.00300
C1638       C  0.36237671  0.88171712  0.97616580    -0.02900
C1639       C  0.39996802  0.83374088  0.98666413     0.36400
C1640       C  0.34978191  0.89927932  0.94180807     0.40000
C1641       C  0.39884440  0.83414878  0.93975164     0.39100
C1642       C  0.34957100  0.89751991  0.98858290     0.36000
C1643       C  0.40312160  0.89661869  0.00975575     0.36700
C1644       C  0.35156043  0.83686030  0.06039777     0.40000
N1645       N  0.40842998  0.82099238  0.92993576    -0.38100
N1646       N  0.41004611  0.82051115  0.99586038    -0.39700
N1647       N  0.34009339  0.91295697  0.93284960    -0.37400
N1648       N  0.33937052  0.91008222  0.99855273    -0.39800
N1649       N  0.33990752  0.82185504  0.00491251    -0.39600
N1650       N  0.34184404  0.82415806  0.07062292    -0.37200
N1651       N  0.41207324  0.91425526  0.06499587    -0.38300
N1652       N  0.41404218  0.90817878  0.99939675    -0.39900
C1653       C  0.38709692  0.21961810  0.85239500    -0.04900
C1654       C  0.37608082  0.23177062  0.86874857     0.09300
C1655       C  0.36557158  0.22068928  0.88611363    -0.02300
C1656       C  0.36608035  0.19756033  0.88716183    -0.00500
C1657       C  0.37685258  0.18528271  0.87065329    -0.04100
C1658       C  0.38747885  0.19646102  0.85330611     0.02900
C1659       C  0.37621440  0.25634056  0.86818459     0.09700
C1660       C  0.35442627  0.23319640  0.90305951     0.35600
C1661       C  0.39847820  0.18415293  0.83612997     0.39000
C1662       C  0.35974901  0.26794754  0.85670797    -0.04500
C1663       C  0.35964544  0.29113071  0.85670178     0.02700
C1664       C  0.37598164  0.30279761  0.86828357    -0.04100
C1665       C  0.39258136  0.29112814  0.87955856    -0.00300
C1666       C  0.39267032  0.26799442  0.87951525    -0.02900
C1667       C  0.34274680  0.25595811  0.84520085     0.36400
C1668       C  0.40991724  0.30295202  0.89079205     0.40000
C1669       C  0.34228172  0.30295678  0.84546287     0.39100
C1670       C  0.40966520  0.25609630  0.89121424     0.36000
C1671       C  0.39811931  0.23104193  0.83468606     0.36700
C1672       C  0.35650081  0.18657590  0.90591553     0.40000
N1673       N  0.32841919  0.31242220  0.83654181    -0.38100
N1674       N  0.32918887  0.24633260  0.83605861    -0.39700
N1675       N  0.42373152  0.31244492  0.89969000    -0.37400
N1676       N  0.42319704  0.24656725  0.90055406    -0.39800
N1677       N  0.34555021  0.24321062  0.91655043    -0.39600
N1678       N  0.34898681  0.17819952  0.92118419    -0.37200
N1679       N  0.40725267  0.17432462  0.82243677    -0.38300
N1680       N  0.40691387  0.24023395  0.82059659    -0.39900
C1681       C  0.35827162  0.01895070  0.88752996    -0.04900
C1682       C  0.37403149  0.00596685  0.87665684     0.09300
C1683       C  0.39180132  0.01613962  0.86592798    -0.02300
C1684       C  0.39364431  0.03924205  0.86568688    -0.00500
C1685       C  0.37698887  0.05250307  0.87523190    -0.04100
C1686       C  0.35981043  0.04206210  0.88703044     0.02900
C1687       C  0.37248310  0.98144204  0.87717471     0.09700
C1688       C  0.40821025  0.00267780  0.85505678     0.35600
C1689       C  0.34455822  0.05494965  0.90006802     0.39000
C1690       C  0.36195593  0.97009289  0.85997719    -0.04500
C1691       C  0.36156619  0.94693849  0.85984961     0.02700
C1692       C  0.37175434  0.93500241  0.87692934    -0.04100
C1693       C  0.38194667  0.94638630  0.89434881    -0.00300
C1694       C  0.38222983  0.96954155  0.89449659    -0.02900
C1695       C  0.35174873  0.98230797  0.84228600     0.36400
C1696       C  0.39181025  0.93427967  0.91232989     0.40000
C1697       C  0.35142816  0.93538022  0.84168989     0.39100
C1698       C  0.39261656  0.98121341  0.91242289     0.36000
C1699       C  0.34049657  0.00843388  0.89935327     0.36700
C1700       C  0.41318194  0.04900976  0.85630447     0.40000
N1701       N  0.34340814  0.92610701  0.82720288    -0.38100
N1702       N  0.34360353  0.99207769  0.82818158    -0.39700
N1703       N  0.39964600  0.92462784  0.92669202    -0.37400
N1704       N  0.40083036  0.99060284  0.92672186    -0.39800
N1705       N  0.42117704  0.99185415  0.84632979    -0.39600
N1706       N  0.42917359  0.05647704  0.84929567    -0.37200
N1707       N  0.33258587  0.06522171  0.91068064    -0.38300
N1708       N  0.32633344  0.00002293  0.90879279    -0.39900
C1709       C  0.36510968  0.22296544  0.10990192    -0.04900
C1710       C  0.37639340  0.23422449  0.12666986     0.09300
C1711       C  0.38817504  0.22218136  0.14257732    -0.02300
C1712       C  0.38909435  0.19903126  0.14144933    -0.00500
C1713       C  0.37793869  0.18771132  0.12453695    -0.04100
C1714       C  0.36577900  0.19982265  0.10887696     0.02900
C1715       C  0.37668654  0.25884971  0.12694153     0.09700
C1716       C  0.39922034  0.23369800  0.16020839     0.35600
C1717       C  0.35452540  0.18853331  0.09121380     0.39000
C1718       C  0.35934610  0.27080510  0.13666997    -0.04500
C1719       C  0.35962269  0.29399692  0.13655591     0.02700
C1720       C  0.37721198  0.30538241  0.12660651    -0.04100
C1721       C  0.39444988  0.29338552  0.11671929    -0.00300
C1722       C  0.39423563  0.27022339  0.11700092    -0.02900
C1723       C  0.34114487  0.25919222  0.14664268     0.36400
C1724       C  0.41268280  0.30484954  0.10662201     0.40000
C1725       C  0.34141214  0.30617117  0.14597036     0.39100
C1726       C  0.41207759  0.25798297  0.10701850     0.36000
C1727       C  0.35300709  0.23530216  0.09352940     0.36700
C1728       C  0.40103347  0.18686040  0.15807697     0.40000
N1729       N  0.32688000  0.31595082  0.15338162    -0.38100
N1730       N  0.32659167  0.24992183  0.15455199    -0.39700
N1731       N  0.42727609  0.31389836  0.09854259    -0.37400
N1732       N  0.42629039  0.24812358  0.09912243    -0.39800
N1733       N  0.40794814  0.24293803  0.17429710    -0.39600
N1734       N  0.41056128  0.17714086  0.17133445    -0.37200
N1735       N  0.34557579  0.17949714  0.07713024    -0.38300
N1736       N  0.34335467  0.24520066  0.08050103    -0.39900
C1737       C  0.36642254  0.97176000  0.10505886    -0.04900
C1738       C  0.37810999  0.98389388  0.12091702     0.09300
C1739       C  0.38957192  0.97275611  0.13769251    -0.02300
C1740       C  0.38934022  0.94961669  0.13866715    -0.00500
C1741       C  0.37750737  0.93741967  0.12289744    -0.04100
C1742       C  0.36612152  0.94860843  0.10602120     0.02900
C1743       C  0.37807418  0.00849137  0.12034695     0.09700
C1744       C  0.40145267  0.98524027  0.15408427     0.35600
C1745       C  0.35463137  0.93627040  0.08922469     0.39000
C1746       C  0.36362402  0.02034901  0.13401894    -0.04500
C1747       C  0.36439249  0.04347774  0.13458355     0.02700
C1748       C  0.37939745  0.05505437  0.12111928    -0.04100
C1749       C  0.39381494  0.04308218  0.10731849    -0.00300
C1750       C  0.39308458  0.01990396  0.10692818    -0.02900
C1751       C  0.34796944  0.00863648  0.14758517     0.36400
C1752       C  0.40909520  0.05452738  0.09312077     0.40000
C1753       C  0.35032113  0.05525582  0.14980830     0.39100
C1754       C  0.40776043  0.00769631  0.09267210     0.36000
C1755       C  0.35464000  0.98314885  0.08779572     0.36700
C1756       C  0.40071792  0.93843323  0.15634377     0.40000
N1757       N  0.33917558  0.06465574  0.16199907    -0.38100
N1758       N  0.33547548  0.99924320  0.15836145    -0.39700
N1759       N  0.42132632  0.06364293  0.08181062    -0.37400
N1760       N  0.41938000  0.99789780  0.08126290    -0.39800
N1761       N  0.41082827  0.99532561  0.16713789    -0.39600
N1762       N  0.40976410  0.92954164  0.17048403    -0.37200
N1763       N  0.34553142  0.92635223  0.07584564    -0.38300
N1764       N  0.34524899  0.99221923  0.07399842    -0.39900
C1765       C  0.38882317  0.13875003  0.02086857    -0.04900
C1766       C  0.38053373  0.12017850  0.00981229     0.09300
C1767       C  0.37276696  0.10210254  0.02198551    -0.02300
C1768       C  0.37298624  0.10269716  0.04510277    -0.00500
C1769       C  0.38108786  0.12135021  0.05619009    -0.04100
C1770       C  0.38926083  0.13927762  0.04402673     0.02900
C1771       C  0.37970322  0.11968301  0.98526671     0.09700
C1772       C  0.36447112  0.08291603  0.01064642     0.35600
C1773       C  0.39756650  0.15847682  0.05534372     0.39000
C1774       C  0.39763782  0.11152265  0.97318400    -0.04500
C1775       C  0.39678470  0.11073740  0.95003748     0.02700
C1776       C  0.37791187  0.11844654  0.93858570    -0.04100
C1777       C  0.35949451  0.12567461  0.95109181    -0.00300
C1778       C  0.36061800  0.12658710  0.97422055    -0.02900
C1779       C  0.41696390  0.10369545  0.98473128     0.36400
C1780       C  0.33906891  0.13195753  0.94056481     0.40000
C1781       C  0.41503629  0.10084104  0.93831987     0.39100
C1782       C  0.34205836  0.13467866  0.98682565     0.36000
C1783       C  0.39656830  0.15741785  0.00834549     0.36700
C1784       C  0.36528830  0.08389155  0.05750082     0.40000
N1785       N  0.42959233  0.09281646  0.92907706    -0.38100
N1786       N  0.43232923  0.09745079  0.99400238    -0.39700
N1787       N  0.32259495  0.13677203  0.93239827    -0.37400
N1788       N  0.32731595  0.14115660  0.99693373    -0.39800
N1789       N  0.35785803  0.06762485  0.00156711    -0.39600
N1790       N  0.35917947  0.06887193  0.06736607    -0.37200
N1791       N  0.40419911  0.17377641  0.06440092    -0.38300
N1792       N  0.40267168  0.17231409  0.99829423    -0.39900
C1793       C  0.85807130  0.02509380  0.64189877    -0.04900
C1794       C  0.87550360  0.01278435  0.63279017     0.09300
C1795       C  0.89398639  0.02371457  0.62410443    -0.02300
C1796       C  0.89481032  0.04682200  0.62404282    -0.00500
C1797       C  0.87745187  0.05912544  0.63327287    -0.04100
C1798       C  0.85916583  0.04821379  0.64240165     0.02900
C1799       C  0.87428987  0.98825480  0.63191050    -0.19100
C1800       C  0.91215076  0.01111380  0.61519996     0.35600
C1801       C  0.84112097  0.06079882  0.65159090     0.39000
C1802       C  0.86943973  0.97765528  0.61200064    -0.04500
C1803       C  0.86913792  0.95452293  0.61076829     0.02700
C1804       C  0.87334236  0.94149146  0.62977653    -0.04100
C1805       C  0.87797353  0.95253777  0.64989744    -0.00300
C1806       C  0.87849286  0.97569500  0.65081009    -0.02900
C1807       C  0.86468928  0.99074540  0.59265283     0.36400
C1808       C  0.88269665  0.94048307  0.66988310     0.40000
C1809       C  0.86448533  0.94458390  0.58964592     0.39100
C1810       C  0.88362631  0.98675906  0.67126767     0.36000
C1811       C  0.83881010  0.01393329  0.65029428     0.36700
C1812       C  0.91361171  0.05795468  0.61459308     0.40000
N1813       N  0.86095607  0.93690287  0.57264447    -0.38100
N1814       N  0.86093651  0.00122044  0.57726701    -0.39700
N1815       N  0.88639615  0.93110428  0.68597694    -0.37400
N1816       N  0.88765891  0.99562750  0.68755754    -0.39800
N1817       N  0.92661705  0.00102228  0.60809740    -0.39600
N1818       N  0.92856057  0.06683584  0.60697387    -0.37200
N1819       N  0.82672145  0.07083133  0.65891763    -0.38300
N1820       N  0.82344448  0.00498549  0.65694202    -0.39900
C1821       C  0.97930445  0.13921950  0.61272958    -0.04900
C1822       C  0.99159676  0.12394069  0.62504660     0.09300
C1823       C  0.98062007  0.10845677  0.63828196    -0.02300
C1824       C  0.95744737  0.10851494  0.63953090    -0.00500
C1825       C  0.94507773  0.12400692  0.62738672    -0.04100
C1826       C  0.95615787  0.13932375  0.61392859     0.02900
C1827       C  0.01618896  0.12484824  0.62472519     0.09700
C1828       C  0.99325169  0.09244968  0.65058946     0.35600
C1829       C  0.94382044  0.15585904  0.60201135     0.39000
C1830       C  0.02732931  0.13909543  0.63913146    -0.04500
C1831       C  0.05042751  0.14066370  0.63844603     0.02700
C1832       C  0.06267735  0.12755551  0.62365673    -0.04100
C1833       C  0.05144829  0.11320158  0.60926115    -0.00300
C1834       C  0.02828082  0.11202511  0.60968900    -0.02900
C1835       C  0.01491125  0.15222911  0.65465262     0.36400
C1836       C  0.06368910  0.09905464  0.59449542     0.40000
C1837       C  0.06148597  0.15641475  0.65243722     0.39100
C1838       C  0.01679843  0.09764838  0.59463598     0.36000
C1839       C  0.99060530  0.15495048  0.59892356     0.36700
C1840       C  0.94635682  0.09228917  0.65293837     0.40000
N1841       N  0.07034475  0.16903364  0.66350241    -0.38100
N1842       N  0.00496441  0.16264964  0.66704366    -0.39700
N1843       N  0.07346837  0.08774163  0.58276410    -0.37400
N1844       N  0.00760011  0.08622944  0.58259147    -0.39800
N1845       N  0.00336507  0.07964969  0.66033209    -0.39600
N1846       N  0.93750115  0.07931744  0.66360245    -0.37200
N1847       N  0.93397973  0.16909632  0.59257952    -0.38300
N1848       N  0.99973283  0.16743012  0.58791397    -0.39900
C1849       C  0.97484974  0.88647549  0.64121431    -0.04900
C1850       C  0.98603903  0.87430364  0.62498762     0.09300
C1851       C  0.97397059  0.86140542  0.61007782    -0.02300
C1852       C  0.95081465  0.86097903  0.61108554    -0.00500
C1853       C  0.93942445  0.87377398  0.62685721    -0.04100
C1854       C  0.95166811  0.88621892  0.64220082     0.02900
C1855       C  0.01061525  0.87510004  0.62356693     0.09700
C1856       C  0.98548689  0.84852348  0.59367639     0.35600
C1857       C  0.94056083  0.89929895  0.65870557     0.39000
C1858       C  0.02356151  0.86254500  0.63807994    -0.04500
C1859       C  0.04669583  0.86346194  0.63692873     0.02700
C1860       C  0.05716211  0.87704218  0.62120258    -0.04100
C1861       C  0.04405562  0.88933542  0.60640938    -0.00300
C1862       C  0.02091785  0.88835056  0.60764002    -0.02900
C1863       C  0.01298098  0.84842353  0.65403996     0.36400
C1864       C  0.05422755  0.90349455  0.59021997     0.40000
C1865       C  0.05963009  0.84972065  0.65148948     0.39100
C1866       C  0.00760067  0.90107883  0.59253456     0.36000
C1867       C  0.98728454  0.89953953  0.65672953     0.36700
C1868       C  0.93881704  0.84664831  0.59636020     0.40000
N1869       N  0.06993914  0.83876200  0.66309084    -0.38100
N1870       N  0.00450923  0.83716499  0.66676222    -0.39700
N1871       N  0.06226764  0.91475929  0.57722345    -0.37400
N1872       N  0.99694102  0.91114093  0.58045329    -0.39800
N1873       N  0.99473361  0.83833801  0.58056632    -0.39600
N1874       N  0.92925388  0.83514419  0.58468657    -0.37200
N1875       N  0.93186001  0.90971011  0.67200461    -0.38300
N1876       N  0.99726064  0.90989601  0.66910920    -0.39900
C1877       C  0.12004699  0.98097948  0.59879673    -0.04900
C1878       C  0.12584437  0.99240096  0.61798732     0.09300
C1879       C  0.13067101  0.98067028  0.63725497    -0.02300
C1880       C  0.12958686  0.95754954  0.63753728    -0.00500
C1881       C  0.12403889  0.94563021  0.61815261    -0.04100
C1882       C  0.11928480  0.95779788  0.59871459     0.02900
C1883       C  0.12646060  0.01695878  0.61818778     0.09700
C1884       C  0.13685399  0.99258971  0.65694180     0.35600
C1885       C  0.11324791  0.94688288  0.57844049     0.39000
C1886       C  0.10902378  0.02888041  0.62775163    -0.04500
C1887       C  0.11008044  0.05192776  0.62917508     0.02700
C1888       C  0.12843478  0.06323905  0.62068857    -0.04100
C1889       C  0.14572677  0.05135707  0.61076089    -0.00300
C1890       C  0.14481144  0.02824212  0.60967569    -0.02900
C1891       C  0.08998112  0.01734647  0.63615357     0.36400
C1892       C  0.16479443  0.06284985  0.60234110     0.40000
C1893       C  0.09205209  0.06404610  0.63901589     0.39100
C1894       C  0.16290688  0.01597901  0.60019235     0.36000
C1895       C  0.11457725  0.99325030  0.57912372     0.36700
C1896       C  0.13441720  0.94646377  0.65805253     0.40000
N1897       N  0.07770115  0.07372394  0.64689328    -0.38100
N1898       N  0.07482138  0.00810418  0.64286218    -0.39700
N1899       N  0.18002663  0.07200382  0.59566381    -0.37400
N1900       N  0.17732194  0.00613583  0.59264563    -0.39800
N1901       N  0.14173862  0.00215060  0.67258677    -0.39600
N1902       N  0.13821605  0.93783323  0.67454436    -0.37200
N1903       N  0.10853223  0.93838650  0.56213666    -0.38300
N1904       N  0.11019854  0.00307173  0.56346816    -0.39900
C1905       C  0.63925347  0.88188184  0.22956193    -0.04900
C1906       C  0.62046039  0.87489222  0.24104453     0.09300
C1907       C  0.60167336  0.86831212  0.22933831    -0.02300
C1908       C  0.60173965  0.86820234  0.20619923    -0.00500
C1909       C  0.62071547  0.87500417  0.19435791    -0.04100
C1910       C  0.63929161  0.88241707  0.20640838     0.02900
C1911       C  0.62023256  0.87473682  0.26561318     0.09700
C1912       C  0.58216949  0.86155281  0.24126131     0.35600
C1913       C  0.65828284  0.89152836  0.19529336     0.39000
C1914       C  0.61773469  0.89448590  0.27730684    -0.04500
C1915       C  0.61685796  0.89439638  0.30045835     0.02700
C1916       C  0.61864781  0.87431444  0.31237586    -0.04100
C1917       C  0.62031709  0.85436478  0.30018032    -0.00300
C1918       C  0.62154914  0.85474602  0.27706407    -0.02900
C1919       C  0.61592525  0.91501537  0.26533585     0.36400
C1920       C  0.62027685  0.83310506  0.31091785     0.40000
C1921       C  0.61336224  0.91517972  0.31156281     0.39100
C1922       C  0.62426648  0.83442403  0.26489302     0.36000
C1923       C  0.65865869  0.88845841  0.24169697     0.36700
C1924       C  0.58212653  0.86076396  0.19493942     0.40000
N1925       N  0.61048988  0.93185422  0.32019838    -0.38100
N1926       N  0.61460052  0.93133942  0.25572567    -0.39700
N1927       N  0.61999768  0.81605229  0.31927570    -0.37400
N1928       N  0.62641651  0.81824571  0.25518410    -0.39800
N1929       N  0.56669262  0.85609756  0.25081668    -0.39600
N1930       N  0.56639276  0.85483252  0.18611751    -0.37200
N1931       N  0.67343114  0.89892425  0.18655048    -0.38300
N1932       N  0.67410929  0.89368682  0.25141092    -0.39900
C1933       C  0.63920326  0.86295286  0.72921605    -0.04900
C1934       C  0.62215691  0.87387865  0.74051397     0.09300
C1935       C  0.60493692  0.88383414  0.72863724    -0.02300
C1936       C  0.60488931  0.88308446  0.70552076    -0.00500
C1937       C  0.62208460  0.87234632  0.69418730    -0.04100
C1938       C  0.63915730  0.86213562  0.70610958     0.02900
C1939       C  0.62225106  0.87456279  0.76501574     0.09700
C1940       C  0.58714313  0.89460496  0.74026625     0.35600
C1941       C  0.65699826  0.85128747  0.69460185     0.39000
C1942       C  0.62978121  0.89341414  0.77611104    -0.04500
C1943       C  0.63065882  0.89368691  0.79922815     0.02700
C1944       C  0.62386321  0.87515830  0.81133985    -0.04100
C1945       C  0.61592268  0.85645828  0.80021892    -0.00300
C1946       C  0.61515747  0.85616405  0.77711244    -0.02900
C1947       C  0.63641467  0.91259540  0.76369601     0.36400
C1948       C  0.60883293  0.83736757  0.81252842     0.40000
C1949       C  0.63780041  0.91334065  0.81051932     0.39100
C1950       C  0.60695200  0.83698543  0.76569045     0.36000
C1951       C  0.65683408  0.85262049  0.74145541     0.36700
C1952       C  0.58672575  0.89267129  0.69341863     0.40000
N1953       N  0.64339142  0.92918011  0.81932445    -0.38100
N1954       N  0.64155745  0.92794606  0.75378898    -0.39700
N1955       N  0.60313391  0.82211894  0.82228623    -0.37400
N1956       N  0.60041863  0.82173381  0.75648810    -0.39800
N1957       N  0.57295593  0.90319673  0.74955990    -0.39600
N1958       N  0.57222422  0.90021908  0.68372260    -0.37200
N1959       N  0.67120306  0.84263240  0.68539082    -0.38300
N1960       N  0.67082439  0.84434195  0.75129707    -0.39900
C1961       C  0.72347694  0.86089124  0.61243997    -0.04900
C1962       C  0.73504341  0.87493343  0.62671687     0.09300
C1963       C  0.72328547  0.88891291  0.64097516    -0.02300
C1964       C  0.70008133  0.88849869  0.64133838    -0.00500
C1965       C  0.68841513  0.87439124  0.62705561    -0.04100
C1966       C  0.70028999  0.86085425  0.61233442     0.02900
C1967       C  0.75968879  0.87500504  0.62663651     0.09700
C1968       C  0.73516096  0.90367457  0.65533438     0.35600
C1969       C  0.68869332  0.84750723  0.59641341     0.39000
C1970       C  0.77122934  0.88919183  0.61248222    -0.04500
C1971       C  0.79443467  0.88899460  0.61205413     0.02700
C1972       C  0.80637282  0.87456276  0.62587090    -0.04100
C1973       C  0.79465737  0.86016324  0.63988032    -0.00300
C1974       C  0.77146042  0.86058334  0.64039940    -0.02900
C1975       C  0.75910988  0.90420215  0.59851874     0.36400
C1976       C  0.80636679  0.84420231  0.65313702     0.40000
C1977       C  0.80590266  0.90411108  0.59771930     0.39100
C1978       C  0.75959837  0.84620159  0.65518021     0.36000
C1979       C  0.73553221  0.84641474  0.59786067     0.36700
C1980       C  0.68830003  0.90208197  0.65697059     0.40000
N1981       N  0.81493079  0.91617242  0.58618441    -0.38100
N1982       N  0.74937953  0.91619900  0.58745416    -0.39700
N1983       N  0.81570404  0.83139341  0.66362133    -0.37400
N1984       N  0.75008650  0.83482707  0.66702775    -0.39800
N1985       N  0.74468668  0.91549505  0.66671707    -0.39600
N1986       N  0.67888852  0.91287515  0.66946485    -0.37200
N1987       N  0.67941089  0.83699755  0.58362352    -0.38300
N1988       N  0.74519093  0.83481347  0.58631774    -0.39900
C1989       C  0.60644214  0.88637496  0.47980604    -0.04900
C1990       C  0.62091036  0.87254765  0.49146714     0.09300
C1991       C  0.63546685  0.85867362  0.47994403    -0.02300
C1992       C  0.63596466  0.85899730  0.45683202    -0.00500
C1993       C  0.62155995  0.87292118  0.44510453    -0.04100
C1994       C  0.60658216  0.88639609  0.45668756     0.02900
C1995       C  0.62085119  0.87250697  0.51597105     0.09700
C1996       C  0.64978882  0.84390878  0.49196501     0.35600
C1997       C  0.59061217  0.89955461  0.44484089     0.39000
C1998       C  0.60454198  0.86085152  0.52754563    -0.04500
C1999       C  0.60493952  0.86020080  0.55066311     0.02700
C2000       C  0.62145716  0.87154276  0.56229418    -0.04100
C2001       C  0.63769174  0.88331810  0.55068540    -0.00300
C2002       C  0.63741717  0.88373844  0.52758001    -0.02900
C2003       C  0.58729764  0.84964420  0.51559279     0.36400
C2004       C  0.65510803  0.89442954  0.56251172     0.40000
C2005       C  0.58806173  0.84827194  0.56246960     0.39100
C2006       C  0.65421111  0.89568584  0.51568495     0.36000
C2007       C  0.59128171  0.90044436  0.49164436     0.36700
C2008       C  0.65168134  0.84537235  0.44518609     0.40000
N2009       N  0.57462876  0.83871301  0.57188408    -0.38100
N2010       N  0.57348762  0.84087517  0.50597652    -0.39700
N2011       N  0.66898635  0.90323059  0.57200347    -0.37400
N2012       N  0.66763990  0.90514620  0.50616998    -0.39800
N2013       N  0.66112998  0.83212247  0.50163752    -0.39600
N2014       N  0.66422281  0.83451542  0.43589283    -0.37200
N2015       N  0.57781021  0.90990334  0.43533830    -0.38300
N2016       N  0.57913052  0.91160902  0.50108558    -0.39900
C2017       C  0.22331549  0.85869190  0.60606054    -0.04900
C2018       C  0.23587004  0.87552421  0.61572893     0.09300
C2019       C  0.22527393  0.89374238  0.62533709    -0.02300
C2020       C  0.20216055  0.89491743  0.62572921    -0.00500
C2021       C  0.18954103  0.87792677  0.61634192    -0.04100
C2022       C  0.20018899  0.85986999  0.60636499     0.02900
C2023       C  0.26029417  0.87364347  0.61681188     0.09700
C2024       C  0.23826542  0.91121791  0.63490325     0.35600
C2025       C  0.18734312  0.84204286  0.59723681     0.39000
C2026       C  0.27343555  0.88157730  0.59949325    -0.04500
C2027       C  0.29652572  0.88083922  0.60118652     0.02700
C2028       C  0.30650274  0.87162069  0.61998558    -0.04100
C2029       C  0.29331946  0.86335574  0.63713124    -0.00300
C2030       C  0.27026914  0.86454051  0.63561839    -0.02900
C2031       C  0.26313421  0.89044458  0.57995710     0.36400
C2032       C  0.30350275  0.85429780  0.65666160     0.40000
C2033       C  0.30999531  0.88929501  0.58346768     0.39100
C2034       C  0.25672511  0.85663560  0.65351827     0.36000
C2035       C  0.23424889  0.84001885  0.59611018     0.36700
C2036       C  0.19141803  0.91381643  0.63545018     0.40000
N2037       N  0.32070889  0.89611072  0.56934747    -0.38100
N2038       N  0.25488068  0.89740465  0.56433263    -0.39700
N2039       N  0.31168009  0.84711207  0.67222438    -0.37400
N2040       N  0.24585001  0.85042394  0.66778729    -0.39800
N2041       N  0.24872684  0.92510901  0.64248588    -0.39600
N2042       N  0.18299126  0.92897815  0.64320443    -0.37200
N2043       N  0.17706112  0.82781315  0.59004032    -0.38300
N2044       N  0.24298935  0.82513686  0.58815055    -0.39900
C2045       C  0.35790847  0.85400214  0.77407248    -0.04900
C2046       C  0.36932507  0.87001364  0.76187901     0.09300
C2047       C  0.38152963  0.88625221  0.77299014    -0.02300
C2048       C  0.38231203  0.88649800  0.79615768    -0.00500
C2049       C  0.37114204  0.87027224  0.80838715    -0.04100
C2050       C  0.35901584  0.85395319  0.79720643     0.02900
C2051       C  0.36902987  0.86941639  0.73726674     0.09700
C2052       C  0.39335857  0.90266979  0.76049344     0.35600
C2053       C  0.34837386  0.83654069  0.80946117     0.39000
C2054       C  0.35488982  0.88339403  0.72535499    -0.04500
C2055       C  0.35510345  0.88321629  0.70216497     0.02700
C2056       C  0.36956558  0.86907196  0.69068845    -0.04100
C2057       C  0.38361231  0.85497201  0.70271779    -0.00300
C2058       C  0.38314260  0.85499168  0.72587088    -0.02900
C2059       C  0.33988719  0.89773149  0.73705387     0.36400
C2060       C  0.39926927  0.84104741  0.69133911     0.40000
C2061       C  0.33994691  0.89714060  0.69016559     0.39100
C2062       C  0.39720322  0.84011955  0.73806273     0.36000
C2063       C  0.34501644  0.83755453  0.76273546     0.36700
C2064       C  0.39406624  0.90384948  0.80739745     0.40000
N2065       N  0.32783192  0.90821212  0.68057980    -0.38100
N2066       N  0.32790954  0.90912220  0.74644549    -0.39700
N2067       N  0.41181038  0.83002389  0.68224276    -0.37400
N2068       N  0.40826317  0.82814722  0.74783174    -0.39800
N2069       N  0.40277203  0.91573878  0.75045769    -0.39600
N2070       N  0.40335001  0.91774536  0.81638601    -0.37200
N2071       N  0.34001211  0.82261014  0.81927148    -0.38300
N2072       N  0.33469591  0.82447475  0.75365997    -0.39900
C2073       C  0.52160675  0.85305814  0.64319752    -0.04900
C2074       C  0.50930069  0.86667348  0.62910903     0.09300
C2075       C  0.52017890  0.88135678  0.61494628    -0.02300
C2076       C  0.54332166  0.88231106  0.61469244    -0.00500
C2077       C  0.55579352  0.86874144  0.62887332    -0.04100
C2078       C  0.54475954  0.85412545  0.64318940     0.02900
C2079       C  0.48476168  0.86574010  0.62928033     0.09700
C2080       C  0.50744206  0.89552444  0.60064923     0.35600
C2081       C  0.55710611  0.84069304  0.65850034     0.39000
C2082       C  0.47271940  0.87937066  0.64360507    -0.04500
C2083       C  0.44957302  0.87898224  0.64337853     0.02700
C2084       C  0.43829092  0.86540975  0.62831448    -0.04100
C2085       C  0.45042761  0.85144318  0.61424265    -0.00300
C2086       C  0.47359108  0.85151755  0.61487013    -0.02900
C2087       C  0.48423344  0.89397892  0.65842247     0.36400
C2088       C  0.43918313  0.83756690  0.59852354     0.40000
C2089       C  0.43739652  0.89201644  0.65919034     0.39100
C2090       C  0.48602527  0.83715943  0.60049526     0.36000
C2091       C  0.51032578  0.83806631  0.65783190     0.36700
C2092       C  0.55423012  0.89679439  0.59927374     0.40000
N2093       N  0.42764403  0.90227235  0.67187913    -0.38100
N2094       N  0.49346552  0.90568256  0.67015828    -0.39700
N2095       N  0.43019763  0.82650933  0.58599025    -0.37400
N2096       N  0.49598257  0.82568391  0.58907573    -0.39800
N2097       N  0.49720984  0.90683660  0.58931752    -0.39600
N2098       N  0.56292798  0.90832562  0.58696020    -0.37200
N2099       N  0.56692827  0.82998990  0.67075068    -0.38300
N2100       N  0.50124334  0.82614274  0.66947319    -0.39900
C2101       C  0.38392722  0.85502729  0.22616431    -0.04900
C2102       C  0.37485643  0.87323300  0.23729566     0.09300
C2103       C  0.36623376  0.89095545  0.22511199    -0.02300
C2104       C  0.36649130  0.89040721  0.20194345    -0.00500
C2105       C  0.37549398  0.87215602  0.19077911    -0.04100
C2106       C  0.38423124  0.85446490  0.20298782     0.02900
C2107       C  0.37396273  0.87350826  0.26190275     0.09700
C2108       C  0.35710522  0.90977004  0.23649162     0.35600
C2109       C  0.39281042  0.83532185  0.19170084     0.39000
C2110       C  0.39106472  0.88319709  0.27414129    -0.04500
C2111       C  0.39029849  0.88317405  0.29731915     0.02700
C2112       C  0.37245929  0.87333227  0.30839876    -0.04100
C2113       C  0.35531681  0.86372402  0.29613077    -0.00300
C2114       C  0.35602571  0.86390845  0.27297508    -0.02900
C2115       C  0.40952195  0.89303390  0.26280860     0.36400
C2116       C  0.33667191  0.85408510  0.30736248     0.40000
C2117       C  0.40820948  0.89265940  0.30978266     0.39100
C2118       C  0.33823038  0.85431869  0.26045638     0.36000
C2119       C  0.39285031  0.83683083  0.23865208     0.36700
C2120       C  0.35788612  0.90885192  0.18957420     0.40000
N2121       N  0.42250761  0.90017454  0.31975134    -0.38100
N2122       N  0.42422735  0.90086721  0.25370642    -0.39700
N2123       N  0.32181562  0.84643610  0.31637950    -0.37400
N2124       N  0.32403074  0.84671582  0.25042194    -0.39800
N2125       N  0.34986324  0.92478626  0.24560855    -0.39600
N2126       N  0.35104112  0.92355604  0.17967891    -0.37200
N2127       N  0.39955385  0.82001434  0.18268205    -0.38300
N2128       N  0.39996161  0.82235710  0.24869546    -0.39900
C2129       C  0.47333383  0.86267599  0.36619389    -0.04900
C2130       C  0.48310912  0.87610061  0.38230866     0.09300
C2131       C  0.46969887  0.88820423  0.39680393    -0.02300
C2132       C  0.44660131  0.88712204  0.39499797    -0.00500
C2133       C  0.43675567  0.87406749  0.37849132    -0.04100
C2134       C  0.45027293  0.86164353  0.36426509     0.02900
C2135       C  0.50763433  0.87728571  0.38388002     0.09700
C2136       C  0.47973276  0.90157210  0.41371629     0.35600
C2137       C  0.44052644  0.84816194  0.34726850     0.39000
C2138       C  0.51913383  0.89426600  0.37322703    -0.04500
C2139       C  0.54231578  0.89395801  0.37238295     0.02700
C2140       C  0.55428706  0.87676209  0.38262228    -0.04100
C2141       C  0.54256537  0.86039146  0.39434414    -0.00300
C2142       C  0.51939112  0.86065264  0.39483585    -0.02900
C2143       C  0.50698447  0.91194363  0.36285869     0.36400
C2144       C  0.55418866  0.84336703  0.40630128     0.40000
C2145       C  0.55359841  0.91091461  0.36007581     0.39100
C2146       C  0.50750326  0.84372403  0.40660001     0.36000
C2147       C  0.48713467  0.84994977  0.35151591     0.36700
C2148       C  0.43299534  0.89869404  0.41078962     0.40000
N2149       N  0.56252577  0.92446630  0.35023336    -0.38100
N2150       N  0.49725529  0.92610753  0.35474119    -0.39700
N2151       N  0.56341252  0.82973775  0.41580938    -0.37400
N2152       N  0.49797330  0.83026633  0.41598967    -0.39800
N2153       N  0.48776217  0.91223952  0.42720459    -0.39600
N2154       N  0.42213728  0.90780616  0.42345123    -0.37200
N2155       N  0.43273888  0.83736876  0.33373844    -0.38300
N2156       N  0.49823056  0.83978549  0.33991014    -0.39900
C2157       C  0.38710906  0.85545756  0.47465825    -0.04900
C2158       C  0.37344090  0.86923872  0.48727667     0.09300
C2159       C  0.35889606  0.88383806  0.47670056    -0.02300
C2160       C  0.35778179  0.88448780  0.45358065    -0.00500
C2161       C  0.37119506  0.87040137  0.44081472    -0.04100
C2162       C  0.38603939  0.85601202  0.45153978     0.02900
C2163       C  0.37420368  0.86831081  0.51180958     0.09700
C2164       C  0.34508780  0.89823846  0.48973274     0.35600
C2165       C  0.40090369  0.84233393  0.43886756     0.39000
C2166       C  0.39046604  0.87996091  0.52342641    -0.04500
C2167       C  0.39080686  0.87952111  0.54658073     0.02700
C2168       C  0.37466661  0.86763814  0.55827736    -0.04100
C2169       C  0.35844575  0.85588777  0.54655802    -0.00300
C2170       C  0.35835436  0.85609334  0.52341847    -0.02900
C2171       C  0.40674639  0.89252711  0.51146602     0.36400
C2172       C  0.34120210  0.84437269  0.55825819     0.40000
C2173       C  0.40811985  0.89084747  0.55832493     0.39100
C2174       C  0.34183578  0.84385011  0.51145813     0.36000
C2175       C  0.40242179  0.84080364  0.48554591     0.36700
C2176       C  0.34246323  0.89939652  0.44305019     0.40000
N2177       N  0.42196567  0.89981945  0.56770522    -0.38100
N2178       N  0.41969527  0.90252763  0.50184200    -0.39700
N2179       N  0.32737355  0.83530929  0.56758949    -0.37400
N2180       N  0.32869268  0.83408890  0.50186507    -0.39800
N2181       N  0.33410246  0.90967807  0.50021121    -0.39600
N2182       N  0.33030832  0.91137222  0.43467630    -0.37200
N2183       N  0.41277150  0.83144973  0.42875628    -0.38300
N2184       N  0.41470089  0.82919696  0.49424672    -0.39900
C2185       C  0.85966556  0.39060654  0.72477541    -0.04900
C2186       C  0.87074513  0.37429703  0.73692843     0.09300
C2187       C  0.88243388  0.35763141  0.72587109    -0.02300
C2188       C  0.88351986  0.35753684  0.70276717    -0.00500
C2189       C  0.87282163  0.37411512  0.69053795    -0.04100
C2190       C  0.86066841  0.39052458  0.70163140     0.02900
C2191       C  0.87107986  0.37509997  0.76145726     0.09700
C2192       C  0.89343524  0.34061828  0.73839422     0.35600
C2193       C  0.84992200  0.40784306  0.68929088     0.39000
C2194       C  0.85478840  0.36423478  0.77379370    -0.04500
C2195       C  0.85597203  0.36394871  0.79692507     0.02700
C2196       C  0.87359757  0.37437007  0.80780211    -0.04100
C2197       C  0.88993989  0.38514638  0.79539592    -0.00300
C2198       C  0.88848164  0.38579424  0.77232028    -0.02900
C2199       C  0.83682205  0.35338537  0.76262138     0.36400
C2200       C  0.90881865  0.39467088  0.80631348     0.40000
C2201       C  0.83880295  0.35333734  0.80954368     0.39100
C2202       C  0.90489499  0.39745983  0.75964387     0.36000
C2203       C  0.84751832  0.40764022  0.73615468     0.36700
C2204       C  0.89525204  0.34005624  0.69159370     0.40000
N2205       N  0.82511552  0.34490874  0.81964961    -0.38100
N2206       N  0.82248181  0.34475244  0.75367924    -0.39700
N2207       N  0.92398044  0.40205188  0.81502700    -0.37400
N2208       N  0.91785680  0.40685625  0.74944435    -0.39800
N2209       N  0.90215506  0.32708629  0.74848389    -0.39600
N2210       N  0.90457285  0.32608498  0.68269077    -0.37200
N2211       N  0.84140316  0.42165029  0.67939658    -0.38300
N2212       N  0.83781195  0.42122452  0.74524031    -0.39900
C2213       C  0.88751357  0.27347572  0.60836947    -0.04900
C2214       C  0.87748424  0.26210682  0.62586016     0.09300
C2215       C  0.86658466  0.27395210  0.64253057    -0.02300
C2216       C  0.86565224  0.29707121  0.64169035    -0.00500
C2217       C  0.87623885  0.30848431  0.62452461    -0.04100
C2218       C  0.88708099  0.29661342  0.60779992     0.02900
C2219       C  0.87812423  0.23756811  0.62655883     0.09700
C2220       C  0.85658505  0.26229212  0.66069211     0.35600
C2221       C  0.89727308  0.30820785  0.58967815     0.39000
C2222       C  0.89519515  0.22661387  0.63776690    -0.04500
C2223       C  0.89582007  0.20346412  0.63832619     0.02700
C2224       C  0.87904880  0.19114355  0.62811540    -0.04100
C2225       C  0.86199965  0.20217449  0.61682845    -0.00300
C2226       C  0.86165740  0.22530049  0.61592628    -0.02900
C2227       C  0.91212223  0.23924300  0.64869220     0.36400
C2228       C  0.84442339  0.18977176  0.60665213     0.40000
C2229       C  0.91422512  0.19232690  0.64857556     0.39100
C2230       C  0.84433139  0.23657160  0.60408855     0.36000
C2231       C  0.89820656  0.26128585  0.59093429     0.36700
C2232       C  0.85418675  0.30913108  0.65874367     0.40000
N2233       N  0.92898944  0.18340202  0.65656172    -0.38100
N2234       N  0.92555966  0.24937160  0.65745747    -0.39700
N2235       N  0.83040240  0.17986079  0.59857305    -0.37400
N2236       N  0.83058191  0.24563187  0.59459854    -0.39800
N2237       N  0.84873299  0.25295818  0.67523688    -0.39600
N2238       N  0.84496401  0.31877801  0.67227409    -0.37200
N2239       N  0.90535106  0.31748914  0.57521941    -0.38300
N2240       N  0.90665560  0.25150539  0.57700666    -0.39900
C2241       C  0.89105564  0.39639973  0.27332651    -0.04900
C2242       C  0.87835595  0.38064712  0.26210789     0.09300
C2243       C  0.86669069  0.36471916  0.27416803    -0.02300
C2244       C  0.86788824  0.36437857  0.29730989    -0.00500
C2245       C  0.88045960  0.38027226  0.30862401    -0.04100
C2246       C  0.89196284  0.39634947  0.29648376     0.02900
C2247       C  0.87783008  0.38041427  0.23749988     0.09700
C2248       C  0.85353156  0.34860299  0.26266335     0.35600
C2249       C  0.90406832  0.41340051  0.30778624     0.39000
C2250       C  0.89461026  0.36966188  0.22572102    -0.04500
C2251       C  0.89443603  0.36962102  0.20256276     0.02700
C2252       C  0.87728715  0.38009739  0.19090263    -0.04100
C2253       C  0.86043027  0.39084037  0.20277711    -0.00300
C2254       C  0.86074869  0.39102693  0.22597697    -0.02900
C2255       C  0.91220466  0.35875487  0.23754069     0.36400
C2256       C  0.84247602  0.40132829  0.19115448     0.40000
C2257       C  0.91261810  0.35969797  0.19091977     0.39100
C2258       C  0.84354998  0.40219899  0.23808085     0.36000
C2259       C  0.90314179  0.41272682  0.26095224     0.36700
C2260       C  0.85678711  0.34715854  0.30941318     0.40000
N2261       N  0.92754569  0.35182881  0.18221847    -0.38100
N2262       N  0.92621861  0.35008153  0.24700307    -0.39700
N2263       N  0.82813186  0.40965740  0.18187673    -0.37400
N2264       N  0.82986088  0.41110753  0.24781143    -0.39800
N2265       N  0.84297437  0.33583665  0.25341730    -0.39600
N2266       N  0.84802304  0.33337235  0.31907595    -0.37200
N2267       N  0.91364107  0.42712148  0.31672260    -0.38300
N2268       N  0.91281648  0.42569902  0.25103869    -0.39900
C2269       C  0.89582809  0.35968985  0.47484370    -0.04900
C2270       C  0.88361014  0.37475755  0.48749953     0.09300
C2271       C  0.87116772  0.39120037  0.47696690    -0.02300
C2272       C  0.87113323  0.39278140  0.45388600    -0.00500
C2273       C  0.88346934  0.37780385  0.44110618    -0.04100
C2274       C  0.89576113  0.36116929  0.45172335     0.02900
C2275       C  0.88384097  0.37355585  0.51202565     0.09700
C2276       C  0.85831097  0.40647220  0.48999640     0.35600
C2277       C  0.90767937  0.34502336  0.43886764     0.39000
C2278       C  0.89777031  0.38747850  0.52414270    -0.04500
C2279       C  0.89659611  0.38790094  0.54726339     0.02700
C2280       C  0.88190166  0.37385629  0.55848106    -0.04100
C2281       C  0.86855469  0.35929824  0.54626327    -0.00300
C2282       C  0.86936862  0.35934918  0.52312792    -0.02900
C2283       C  0.91324999  0.40145281  0.51269284     0.36400
C2284       C  0.85435320  0.34382481  0.55745755     0.40000
C2285       C  0.90978836  0.40356409  0.55936419     0.39100
C2286       C  0.85519108  0.34488826  0.51065880     0.36000
C2287       C  0.90832454  0.34256160  0.48567635     0.36700
C2288       C  0.85886802  0.41029860  0.44344732     0.40000
N2289       N  0.92022663  0.41615086  0.56898643    -0.38100
N2290       N  0.92564960  0.41247419  0.50347031    -0.39700
N2291       N  0.84309376  0.33144908  0.56642283    -0.37400
N2292       N  0.84390465  0.33336029  0.50067653    -0.39800
N2293       N  0.84806586  0.41859600  0.50045399    -0.39600
N2294       N  0.84902760  0.42441889  0.43541853    -0.37200
N2295       N  0.91709274  0.33211159  0.42857107    -0.38300
N2296       N  0.91823454  0.32885867  0.49434304    -0.39900
C2297       C  0.86076404  0.72636104  0.63688703    -0.04900
C2298       C  0.87411419  0.73766911  0.62176054     0.09300
C2299       C  0.88775616  0.72581030  0.60729435    -0.02300
C2300       C  0.88840933  0.70269412  0.60824480    -0.00500
C2301       C  0.87546539  0.69130492  0.62380992    -0.04100
C2302       C  0.86154782  0.70327399  0.63806416     0.02900
C2303       C  0.87438569  0.76218576  0.62171731     0.09700
C2304       C  0.90100101  0.73747682  0.59133916     0.35600
C2305       C  0.84857402  0.69194299  0.65449439     0.39000
C2306       C  0.88805656  0.77348585  0.63653113    -0.04500
C2307       C  0.88791166  0.79660273  0.63714954     0.02700
C2308       C  0.87379896  0.80862305  0.62310752    -0.04100
C2309       C  0.86035708  0.79719669  0.60799467    -0.00300
C2310       C  0.86077487  0.77405551  0.60724852    -0.02900
C2311       C  0.90235876  0.76120485  0.65110409     0.36400
C2312       C  0.84551281  0.80912620  0.59367869     0.40000
C2313       C  0.90289351  0.80794991  0.65174908     0.39100
C2314       C  0.84711023  0.76236242  0.59168876     0.36000
C2315       C  0.84616369  0.73858689  0.65121144     0.36700
C2316       C  0.90187418  0.69066222  0.59268373     0.40000
N2317       N  0.91489180  0.81698878  0.66334852    -0.38100
N2318       N  0.91372136  0.75133120  0.66269566    -0.39700
N2319       N  0.83367761  0.81864500  0.58225987    -0.37400
N2320       N  0.83629722  0.75298954  0.57922618    -0.39800
N2321       N  0.91147730  0.74683010  0.57856600    -0.39600
N2322       N  0.91256426  0.68105987  0.58024147    -0.37200
N2323       N  0.83827303  0.68288466  0.66762160    -0.38300
N2324       N  0.83445785  0.74838957  0.66253154    -0.39900
C2325       C  0.88461297  0.64539111  0.72574537    -0.04900
C2326       C  0.87558145  0.62789727  0.73793731     0.09300
C2327       C  0.86668510  0.60966298  0.72681259    -0.02300
C2328       C  0.86675471  0.60893786  0.70364907    -0.00500
C2329       C  0.87608946  0.62627920  0.69142613    -0.04100
C2330       C  0.88508204  0.64449570  0.70259213     0.02900
C2331       C  0.87577054  0.62854027  0.76254915     0.09700
C2332       C  0.85772390  0.59149676  0.73928149     0.35600
C2333       C  0.89436170  0.66259641  0.69024042     0.39000
C2334       C  0.85673988  0.63474335  0.77427115    -0.04500
C2335       C  0.85707254  0.63562211  0.79742866     0.02700
C2336       C  0.87626531  0.62972162  0.80903965    -0.04100
C2337       C  0.89543002  0.62402437  0.79729755    -0.00300
C2338       C  0.89514898  0.62330905  0.77414481    -0.02900
C2339       C  0.83680471  0.64018200  0.76244901     0.36400
C2340       C  0.91577989  0.62002595  0.80894112     0.40000
C2341       C  0.83776058  0.64296891  0.80928885     0.39100
C2342       C  0.91480798  0.61714890  0.76217675     0.36000
C2343       C  0.89322962  0.66441827  0.73710626     0.36700
C2344       C  0.85785286  0.58996609  0.69245478     0.40000
N2345       N  0.82240888  0.64912902  0.81865856    -0.38100
N2346       N  0.82087242  0.64439535  0.75299477    -0.39700
N2347       N  0.93225912  0.61720049  0.81793814    -0.37400
N2348       N  0.93047155  0.61225978  0.75257983    -0.39800
N2349       N  0.85060121  0.57701357  0.74926349    -0.39600
N2350       N  0.85075575  0.57471912  0.68368918    -0.37200
N2351       N  0.90177875  0.67702035  0.68038353    -0.38300
N2352       N  0.90004549  0.67958746  0.74624217    -0.39900
C2353       C  0.88837199  0.47534056  0.64250231    -0.04900
C2354       C  0.87884371  0.48704536  0.62492165     0.09300
C2355       C  0.86945564  0.47548740  0.60720384    -0.02300
C2356       C  0.86948070  0.45235087  0.60710306    -0.00500
C2357       C  0.87886745  0.44060445  0.62475484    -0.04100
C2358       C  0.88844429  0.45217865  0.64241303     0.02900
C2359       C  0.87859036  0.51162759  0.62506742     0.09700
C2360       C  0.85982855  0.48747965  0.58903817     0.35600
C2361       C  0.89775201  0.44028248  0.66082123     0.39000
C2362       C  0.89750766  0.52343904  0.61914109    -0.04500
C2363       C  0.89741571  0.54661920  0.61941846     0.02700
C2364       C  0.87795949  0.55842557  0.62503287    -0.04100
C2365       C  0.85877634  0.54617627  0.63048399    -0.00300
C2366       C  0.85931861  0.52301439  0.63084361    -0.02900
C2367       C  0.91707722  0.51157226  0.61238847     0.36400
C2368       C  0.83822239  0.55699963  0.63590418     0.40000
C2369       C  0.91749279  0.55793580  0.61347778     0.39100
C2370       C  0.83994952  0.51072815  0.63726404     0.36000
C2371       C  0.89783163  0.48720858  0.66082014     0.36700
C2372       C  0.86045202  0.44061127  0.58847049     0.40000
N2373       N  0.93365420  0.56675415  0.60881481    -0.38100
N2374       N  0.93261265  0.50206013  0.60693938    -0.39700
N2375       N  0.82170676  0.56544012  0.64011449    -0.37400
N2376       N  0.82453625  0.50090214  0.64238755    -0.39800
N2377       N  0.85209464  0.49709921  0.57459925    -0.39600
N2378       N  0.85334086  0.43119143  0.57361388    -0.37200
N2379       N  0.90515427  0.43079191  0.67552217    -0.38300
N2380       N  0.90537511  0.49673988  0.67538876    -0.39900
C2381       C  0.88912487  0.61534582  0.27401946    -0.04900
C2382       C  0.87450577  0.62913626  0.26251785     0.09300
C2383       C  0.85995011  0.64283478  0.27420244    -0.02300
C2384       C  0.86017032  0.64298823  0.29733560    -0.00500
C2385       C  0.87487052  0.62922448  0.30898345    -0.04100
C2386       C  0.88929971  0.61532367  0.29716936     0.02900
C2387       C  0.87437279  0.62922336  0.23798842     0.09700
C2388       C  0.84473740  0.65679482  0.26230925     0.35600
C2389       C  0.90379503  0.60037773  0.30876088     0.39000
C2390       C  0.85916834  0.61618755  0.22645367    -0.04500
C2391       C  0.85889721  0.61635903  0.20332806     0.02700
C2392       C  0.87400877  0.62946725  0.19155253    -0.04100
C2393       C  0.88902828  0.64279344  0.20318860    -0.00300
C2394       C  0.88920014  0.64262178  0.22633698    -0.02900
C2395       C  0.84368217  0.60270680  0.23847369     0.36400
C2396       C  0.90464604  0.65636236  0.19142221     0.40000
C2397       C  0.84239566  0.60375292  0.19170388     0.39100
C2398       C  0.90460337  0.65625942  0.23827043     0.36000
C2399       C  0.90381137  0.60098822  0.26193761     0.36700
C2400       C  0.84569143  0.65786543  0.30905706     0.40000
N2401       N  0.82917586  0.59381666  0.18239454    -0.38100
N2402       N  0.83131780  0.59199958  0.24810022    -0.39700
N2403       N  0.91706397  0.66724289  0.18205569    -0.37400
N2404       N  0.91686047  0.66711283  0.24786222    -0.39800
N2405       N  0.83257617  0.66783349  0.25274852    -0.39600
N2406       N  0.83414004  0.66973516  0.31839338    -0.37200
N2407       N  0.91530544  0.58841712  0.31801850    -0.38300
N2408       N  0.91549706  0.58954386  0.25224901    -0.39900
C2409       C  0.90088700  0.48227702  0.37284926    -0.04900
C2410       C  0.88154757  0.49342064  0.37882633     0.09300
C2411       C  0.86273938  0.48141888  0.38461023    -0.02300
C2412       C  0.86273169  0.45830700  0.38321648    -0.00500
C2413       C  0.88214060  0.44667965  0.37701295    -0.04100
C2414       C  0.90141404  0.45910100  0.37228731     0.02900
C2415       C  0.88061341  0.51794408  0.37813561     0.09700
C2416       C  0.84334402  0.49302618  0.39226974     0.35600
C2417       C  0.92196819  0.44847190  0.36653890     0.39000
C2418       C  0.87179894  0.52860252  0.35954794    -0.04500
C2419       C  0.87049281  0.55169211  0.35888683     0.02700
C2420       C  0.87795632  0.56421734  0.37686205    -0.04100
C2421       C  0.88689082  0.55357064  0.39541070    -0.00300
C2422       C  0.88824334  0.53047118  0.39603044    -0.02900
C2423       C  0.86427549  0.51571823  0.34101752     0.36400
C2424       C  0.89423302  0.56640313  0.41406475     0.40000
C2425       C  0.86212269  0.56258603  0.33944089     0.39100
C2426       C  0.89742531  0.51954170  0.41506358     0.36000
C2427       C  0.92029062  0.49484264  0.36712630     0.36700
C2428       C  0.84243879  0.44692412  0.38824455     0.40000
N2429       N  0.85553436  0.57126430  0.32388033    -0.38100
N2430       N  0.85830704  0.50534898  0.32629146    -0.39700
N2431       N  0.90002913  0.57669060  0.42891958    -0.37400
N2432       N  0.90482256  0.51080755  0.43022213    -0.39800
N2433       N  0.82798194  0.50229380  0.39856923    -0.39600
N2434       N  0.82608451  0.43807542  0.39209687    -0.37200
N2435       N  0.93852195  0.44022438  0.36209399    -0.38300
N2436       N  0.93571268  0.50493656  0.36259181    -0.39900
C2437       C  0.88796474  0.61271309  0.52311855    -0.04900
C2438       C  0.87670773  0.63003307  0.51263638     0.09300
C2439       C  0.86608617  0.64621242  0.52536557    -0.02300
C2440       C  0.86638414  0.64486117  0.54848682    -0.00500
C2441       C  0.87745946  0.62736171  0.55903298    -0.04100
C2442       C  0.88845752  0.61143500  0.54622976     0.02900
C2443       C  0.87581668  0.63094666  0.48810040     0.09700
C2444       C  0.85481572  0.66422350  0.51460858     0.35600
C2445       C  0.89969339  0.59328245  0.55673437     0.39000
C2446       C  0.86022468  0.61831487  0.47663200    -0.04500
C2447       C  0.86020048  0.61800521  0.45348052     0.02700
C2448       C  0.87521704  0.63115678  0.44153579    -0.04100
C2449       C  0.89042829  0.64431883  0.45319261    -0.00300
C2450       C  0.89100742  0.64380440  0.47633979    -0.02900
C2451       C  0.84431245  0.60544138  0.48877585     0.36400
C2452       C  0.90515010  0.65891029  0.44150186     0.40000
C2453       C  0.84537983  0.60326913  0.44210882     0.39100
C2454       C  0.90749795  0.65623425  0.48813738     0.36000
C2455       C  0.89886797  0.59608336  0.50999756     0.36700
C2456       C  0.85575660  0.66182291  0.56142910     0.40000
N2457       N  0.83364896  0.59139697  0.43308209    -0.38100
N2458       N  0.83160307  0.59525682  0.49852560    -0.39700
N2459       N  0.91683623  0.67060050  0.43216891    -0.37400
N2460       N  0.92073616  0.66601588  0.49757475    -0.39800
N2461       N  0.84587789  0.67862063  0.50601205    -0.39600
N2462       N  0.84730730  0.67535662  0.57176186    -0.37200
N2463       N  0.90869523  0.57869311  0.56490772    -0.38300
N2464       N  0.90746715  0.58283926  0.49942254    -0.39900
C2465       C  0.39292225  0.13626985  0.72378444    -0.04900
C2466       C  0.37533445  0.12572441  0.73454734     0.09300
C2467       C  0.35867783  0.11563560  0.72205347    -0.02300
C2468       C  0.35972449  0.11586577  0.69891750    -0.00500
C2469       C  0.37722624  0.12662636  0.68812049    -0.04100
C2470       C  0.39384411  0.13678349  0.70064640     0.02900
C2471       C  0.37517945  0.12396834  0.75907227     0.09700
C2472       C  0.34056607  0.10484323  0.73307832     0.35600
C2473       C  0.41248788  0.14675574  0.68971373     0.39000
C2474       C  0.36430498  0.13981176  0.77200343    -0.04500
C2475       C  0.36464805  0.13821210  0.79514056     0.02700
C2476       C  0.37591000  0.12070797  0.80552722    -0.04100
C2477       C  0.38665186  0.10481790  0.79244105    -0.00300
C2478       C  0.38621812  0.10641793  0.76934702    -0.02900
C2479       C  0.35285727  0.15781216  0.76143368     0.36400
C2480       C  0.39755450  0.08628952  0.80251937     0.40000
C2481       C  0.35399756  0.15502125  0.80824790     0.39100
C2482       C  0.39701212  0.08987435  0.75600710     0.36000
C2483       C  0.41030603  0.14619712  0.73661189     0.36700
C2484       C  0.34269664  0.10509754  0.68624663     0.40000
N2485       N  0.34554972  0.16845254  0.81871280    -0.38100
N2486       N  0.34370448  0.17215515  0.75297342    -0.39700
N2487       N  0.40630252  0.07119122  0.80997079    -0.37400
N2488       N  0.40554491  0.07671444  0.74527491    -0.39800
N2489       N  0.32609592  0.09627615  0.74189101    -0.39600
N2490       N  0.32915064  0.09643382  0.67616438    -0.37200
N2491       N  0.42740172  0.15454922  0.68091601    -0.38300
N2492       N  0.42417804  0.15403694  0.74691496    -0.39900
C2493       C  0.27848961  0.13719426  0.64317216    -0.04900
C2494       C  0.26599744  0.12760530  0.62625099     0.09300
C2495       C  0.27667818  0.11768041  0.60825016    -0.02300
C2496       C  0.29980351  0.11738013  0.60711820    -0.00500
C2497       C  0.31234806  0.12713429  0.62395378    -0.04100
C2498       C  0.30160675  0.13725249  0.64189150     0.02900
C2499       C  0.24149238  0.12853936  0.62693078     0.09700
C2500       C  0.26376213  0.10801340  0.59077335     0.35600
C2501       C  0.31431811  0.14766851  0.65910844     0.39000
C2502       C  0.23030067  0.14613531  0.61685080    -0.04500
C2503       C  0.20715617  0.14637055  0.61615278     0.02700
C2504       C  0.19508263  0.12922624  0.62602364    -0.04100
C2505       C  0.20634365  0.11191207  0.63665162    -0.00300
C2506       C  0.22949470  0.11152674  0.63697898    -0.02900
C2507       C  0.24270517  0.16407470  0.60735788     0.36400
C2508       C  0.19414085  0.09406435  0.64659771     0.40000
C2509       C  0.19578996  0.16450208  0.60568228     0.39100
C2510       C  0.24104974  0.09356335  0.64751269     0.36000
C2511       C  0.26749399  0.14696299  0.66189855     0.36700
C2512       C  0.31063330  0.10804862  0.58807602     0.40000
N2513       N  0.18672785  0.17895063  0.59729590    -0.38100
N2514       N  0.25268872  0.17840360  0.59993835    -0.39700
N2515       N  0.18438534  0.07983180  0.65449747    -0.37400
N2516       N  0.25030529  0.07925421  0.65592231    -0.39800
N2517       N  0.25336397  0.10035362  0.57687142    -0.39600
N2518       N  0.31920819  0.10074288  0.57277931    -0.37200
N2519       N  0.32443905  0.15608014  0.67278308    -0.38300
N2520       N  0.25871666  0.15465961  0.67688976    -0.39900
C2521       C  0.35669076  0.10830370  0.27087505    -0.04900
C2522       C  0.37462689  0.11694313  0.25902965     0.09300
C2523       C  0.39240157  0.12644334  0.27040823    -0.02300
C2524       C  0.39208745  0.12769100  0.29348717    -0.00500
C2525       C  0.37420237  0.11899042  0.30536379    -0.04100
C2526       C  0.35650569  0.10925709  0.29401302     0.02900
C2527       C  0.37455514  0.11694706  0.23448743     0.09700
C2528       C  0.41101999  0.13498263  0.25828022     0.35600
C2529       C  0.33772866  0.10101189  0.30611503     0.39000
C2530       C  0.36278178  0.13327500  0.22301716    -0.04500
C2531       C  0.36401712  0.13444173  0.19995189     0.02700
C2532       C  0.37683754  0.11908507  0.18816813    -0.04100
C2533       C  0.38845772  0.10258688  0.19966645    -0.00300
C2534       C  0.38724708  0.10149840  0.22275957    -0.02900
C2535       C  0.34959697  0.14906009  0.23504860     0.36400
C2536       C  0.40134817  0.08646425  0.18774483     0.40000
C2537       C  0.35292744  0.15211334  0.18843661     0.39100
C2538       C  0.39901205  0.08446214  0.23453312     0.36000
C2539       C  0.33839615  0.09858232  0.25919853     0.36700
C2540       C  0.41029361  0.13778180  0.30501460     0.40000
N2541       N  0.34421776  0.16626759  0.17922177    -0.38100
N2542       N  0.33899996  0.16154628  0.24469705    -0.39700
N2543       N  0.41166114  0.07364157  0.17822393    -0.37400
N2544       N  0.40838328  0.07088762  0.24396751    -0.39800
N2545       N  0.42589989  0.14163603  0.24854248    -0.39600
N2546       N  0.42479039  0.14591732  0.31417086    -0.37200
N2547       N  0.32272781  0.09453979  0.31579822    -0.38300
N2548       N  0.32377948  0.09088573  0.24985383    -0.39900
C2549       C  0.37184370  0.10774026  0.52021100    -0.04900
C2550       C  0.37514326  0.12719354  0.50824728     0.09300
C2551       C  0.37890605  0.14698638  0.51952158    -0.02300
C2552       C  0.37969053  0.14738163  0.54270841    -0.00500
C2553       C  0.37678095  0.12773954  0.55510138    -0.04100
C2554       C  0.37277065  0.10784615  0.54336391     0.02900
C2555       C  0.37523149  0.12663162  0.48363808     0.09700
C2556       C  0.38218111  0.16703876  0.50709328     0.35600
C2557       C  0.36939369  0.08716073  0.55466550     0.39000
C2558       C  0.35715459  0.13483938  0.47164083    -0.04500
C2559       C  0.35726877  0.13409045  0.44850294     0.02700
C2560       C  0.37521774  0.12462566  0.43724698    -0.04100
C2561       C  0.39315738  0.11613357  0.44923262    -0.00300
C2562       C  0.39330137  0.11743348  0.47233252    -0.02900
C2563       C  0.33827529  0.14371669  0.48314290     0.36400
C2564       C  0.41166511  0.10637639  0.43780273     0.40000
C2565       C  0.33858220  0.14240858  0.43626540     0.39100
C2566       C  0.41209516  0.10935937  0.48454178     0.36000
C2567       C  0.36740201  0.08745781  0.50850891     0.36700
C2568       C  0.38387378  0.16822522  0.55339222     0.40000
N2569       N  0.32371851  0.14901134  0.42643239    -0.38100
N2570       N  0.32320318  0.15080833  0.49230624    -0.39700
N2571       N  0.42643528  0.09854866  0.42874026    -0.37400
N2572       N  0.42703919  0.10289280  0.49433717    -0.39800
N2573       N  0.38466861  0.18300433  0.49712966    -0.39600
N2574       N  0.38714500  0.18497964  0.56169306    -0.37200
N2575       N  0.36675208  0.07053041  0.56344218    -0.38300
N2576       N  0.36393179  0.07133118  0.49912305    -0.39900
C2577       C  0.77677613  0.11226913  0.62194659    -0.04900
C2578       C  0.76589962  0.12789507  0.63513769     0.09300
C2579       C  0.77827792  0.14196923  0.64867831    -0.02300
C2580       C  0.80145902  0.14111250  0.64833338    -0.00500
C2581       C  0.81247920  0.12597831  0.63451875    -0.04100
C2582       C  0.79994697  0.11121684  0.62169053     0.02900
C2583       C  0.74136025  0.12989966  0.63438801     0.09700
C2584       C  0.76704977  0.15743517  0.66289028     0.35600
C2585       C  0.81082522  0.09439030  0.60879059     0.39000
C2586       C  0.72822781  0.11869729  0.64979064    -0.04500
C2587       C  0.70511728  0.12038454  0.64883283     0.02700
C2588       C  0.69494885  0.13352769  0.63257592    -0.04100
C2589       C  0.70818063  0.14523298  0.61754953    -0.00300
C2590       C  0.73127940  0.14318633  0.61829913    -0.02900
C2591       C  0.73857262  0.10544350  0.66664071     0.36400
C2592       C  0.69805278  0.15895181  0.60093707     0.40000
C2593       C  0.69183440  0.10908591  0.66504728     0.39100
C2594       C  0.74477211  0.15454856  0.60233404     0.36000
C2595       C  0.76402592  0.09718671  0.60869908     0.36700
C2596       C  0.81388062  0.15637440  0.66169721     0.40000
N2597       N  0.68123397  0.10013304  0.67800438    -0.38100
N2598       N  0.74685935  0.09492928  0.68011945    -0.39700
N2599       N  0.68995614  0.16997801  0.58775232    -0.37400
N2600       N  0.75560630  0.16348982  0.58956891    -0.39800
N2601       N  0.75800703  0.16966462  0.67428859    -0.39600
N2602       N  0.82377040  0.16853163  0.67238921    -0.37200
N2603       N  0.81952505  0.08089324  0.59861420    -0.38300
N2604       N  0.75382127  0.08514469  0.59817669    -0.39900
C2605       C  0.64496499  0.14121630  0.73074489    -0.04900
C2606       C  0.62728638  0.13121377  0.74185520     0.09300
C2607       C  0.60959826  0.12249894  0.72974211    -0.02300
C2608       C  0.60963681  0.12364705  0.70661281    -0.00500
C2609       C  0.62734297  0.13362011  0.69546038    -0.04100
C2610       C  0.64494984  0.14254454  0.70762044     0.02900
C2611       C  0.62720156  0.13004321  0.76640043     0.09700
C2612       C  0.59133785  0.11239942  0.74116319     0.35600
C2613       C  0.66334532  0.15258419  0.69633118     0.39000
C2614       C  0.61752081  0.14705819  0.77879627    -0.04500
C2615       C  0.61757163  0.14609765  0.80193228     0.02700
C2616       C  0.62721265  0.12801008  0.81281853    -0.04100
C2617       C  0.63687530  0.11095605  0.80037521    -0.00300
C2618       C  0.63688763  0.11200232  0.77723897    -0.02900
C2619       C  0.60766854  0.16565032  0.76765496     0.36400
C2620       C  0.64634875  0.09206141  0.81137085     0.40000
C2621       C  0.60846947  0.16415695  0.81452895     0.39100
C2622       C  0.64688429  0.09453575  0.76450908     0.36000
C2623       C  0.66324608  0.14997582  0.74318809     0.36700
C2624       C  0.59113228  0.11515546  0.69429218     0.40000
N2625       N  0.60131067  0.17861025  0.82457916    -0.38100
N2626       N  0.59981635  0.18045331  0.75870067    -0.39700
N2627       N  0.65385639  0.07699678  0.82019007    -0.37400
N2628       N  0.65487629  0.08063133  0.75431499    -0.39800
N2629       N  0.57678519  0.10436627  0.75033467    -0.39600
N2630       N  0.57637196  0.10846808  0.68440771    -0.37200
N2631       N  0.67802879  0.16058958  0.68733875    -0.38300
N2632       N  0.67782460  0.15689308  0.75317931    -0.39900
C2633       C  0.52630420  0.14822930  0.63936158    -0.04900
C2634       C  0.51587461  0.13377670  0.62460788     0.09300
C2635       C  0.52866922  0.12070184  0.61043362    -0.02300
C2636       C  0.55179066  0.12186561  0.61111072    -0.00500
C2637       C  0.56239150  0.13585220  0.62634561    -0.04100
C2638       C  0.54947439  0.14919423  0.64035029     0.02900
C2639       C  0.49131992  0.13234775  0.62386530     0.09700
C2640       C  0.51793747  0.10600658  0.59511302     0.35600
C2641       C  0.55991751  0.16335020  0.65635738     0.39000
C2642       C  0.47926217  0.14651765  0.61012184    -0.04500
C2643       C  0.45615801  0.14500614  0.60911731     0.02700
C2644       C  0.44481712  0.12940555  0.62212752    -0.04100
C2645       C  0.45704503  0.11516969  0.63588523    -0.00300
C2646       C  0.48018920  0.11656993  0.63660314    -0.02900
C2647       C  0.49074875  0.16263975  0.59691617     0.36400
C2648       C  0.44587679  0.09960966  0.65000932     0.40000
C2649       C  0.44421435  0.15918306  0.59416262     0.39100
C2650       C  0.49265726  0.10182963  0.65054237     0.36000
C2651       C  0.51308959  0.16198902  0.65362283     0.36700
C2652       C  0.56461353  0.10912935  0.59556926     0.40000
N2653       N  0.43475597  0.17052807  0.58221019    -0.38100
N2654       N  0.49995243  0.17549832  0.58642664    -0.39700
N2655       N  0.43697844  0.08722509  0.66130763    -0.37400
N2656       N  0.50266738  0.09006055  0.66160518    -0.39800
N2657       N  0.50932867  0.09426873  0.58294764    -0.39600
N2658       N  0.57486158  0.09903409  0.58314123    -0.37200
N2659       N  0.56822162  0.17463217  0.66915473    -0.38300
N2660       N  0.50247132  0.17298288  0.66492649    -0.39900
C2661       C  0.61748460  0.10811224  0.23024714    -0.04900
C2662       C  0.62788164  0.12546511  0.24148919     0.09300
C2663       C  0.63848063  0.14214932  0.22944454    -0.02300
C2664       C  0.63913722  0.14122548  0.20630788    -0.00500
C2665       C  0.62854182  0.12397751  0.19502553    -0.04100
C2666       C  0.61757627  0.10749824  0.20708281     0.02900
C2667       C  0.62743264  0.12633381  0.26607375     0.09700
C2668       C  0.64838389  0.16046564  0.24091834     0.35600
C2669       C  0.60683466  0.08961002  0.19566372     0.39000
C2670       C  0.64363007  0.11532774  0.27846269    -0.04500
C2671       C  0.64315429  0.11613297  0.30163858     0.02700
C2672       C  0.62655666  0.12818993  0.31261004    -0.04100
C2673       C  0.61043022  0.13929013  0.30008317    -0.00300
C2674       C  0.61080611  0.13823321  0.27694981    -0.02900
C2675       C  0.66087409  0.10329877  0.26725456     0.36400
C2676       C  0.59295486  0.15128667  0.31091733     0.40000
C2677       C  0.66016992  0.10508414  0.31412986     0.39100
C2678       C  0.59392490  0.14923466  0.26424076     0.36000
C2679       C  0.60667743  0.09090574  0.24259761     0.36700
C2680       C  0.65027000  0.15833731  0.19407680     0.40000
N2681       N  0.67374897  0.09626295  0.32408041    -0.38100
N2682       N  0.67460942  0.09374650  0.25822089    -0.39700
N2683       N  0.57891755  0.16091889  0.31935677    -0.37400
N2684       N  0.58044429  0.15795465  0.25407699    -0.39800
N2685       N  0.65610677  0.17515827  0.25010794    -0.39600
N2686       N  0.65919354  0.17192386  0.18427721    -0.37200
N2687       N  0.59825532  0.07536696  0.18652182    -0.38300
N2688       N  0.59811773  0.07717178  0.25250971    -0.39900
C2689       C  0.47448551  0.13466424  0.39003041    -0.04900
C2690       C  0.48709584  0.12407623  0.37372898     0.09300
C2691       C  0.47646418  0.11279407  0.35653087    -0.02300
C2692       C  0.45332072  0.11187374  0.35580424    -0.00500
C2693       C  0.44069952  0.12302832  0.37177806    -0.04100
C2694       C  0.45139200  0.13464612  0.38874894     0.02900
C2695       C  0.51163913  0.12521190  0.37454903     0.09700
C2696       C  0.48939340  0.10242823  0.33941743     0.35600
C2697       C  0.43865657  0.14629600  0.40518710     0.39000
C2698       C  0.52397527  0.10686389  0.38124349    -0.04500
C2699       C  0.54711633  0.10791510  0.38211051     0.02700
C2700       C  0.55831561  0.12781789  0.37698551    -0.04100
C2701       C  0.54549300  0.14643369  0.37079994    -0.00300
C2702       C  0.52242968  0.14488718  0.36918094    -0.02900
C2703       C  0.51269275  0.08689721  0.38765657     0.36400
C2704       C  0.55556552  0.16746408  0.36604807     0.40000
C2705       C  0.55898243  0.08830090  0.38864919     0.39100
C2706       C  0.50961362  0.16366762  0.36194469     0.36000
C2707       C  0.48535368  0.14535913  0.40829532     0.36700
C2708       C  0.44253406  0.10002137  0.33822426     0.40000
N2709       N  0.56826814  0.07250570  0.39372374    -0.38100
N2710       N  0.50369043  0.07101330  0.39281935    -0.39700
N2711       N  0.56331984  0.18439631  0.36238771    -0.37400
N2712       N  0.49933574  0.17859878  0.35622478    -0.39800
N2713       N  0.49975890  0.09420451  0.32577643    -0.39600
N2714       N  0.43396433  0.09055762  0.32418104    -0.37200
N2715       N  0.42853181  0.15567356  0.41825387    -0.38300
N2716       N  0.49408418  0.15380547  0.42287396    -0.39900
C2717       C  0.64091449  0.14930628  0.47909541    -0.04900
C2718       C  0.62724338  0.13570500  0.49189531     0.09300
C2719       C  0.61249534  0.12130365  0.48136194    -0.02300
C2720       C  0.61135804  0.12053375  0.45820880    -0.00500
C2721       C  0.62515736  0.13403234  0.44530337    -0.04100
C2722       C  0.63994050  0.14846251  0.45593926     0.02900
C2723       C  0.62832320  0.13652111  0.51652540     0.09700
C2724       C  0.59854342  0.10715680  0.49445015     0.35600
C2725       C  0.65474382  0.16197811  0.44310616     0.39000
C2726       C  0.61212814  0.14799067  0.52855033    -0.04500
C2727       C  0.61256102  0.14796433  0.55173084     0.02700
C2728       C  0.62949847  0.13684382  0.56309133    -0.04100
C2729       C  0.64603052  0.12586993  0.55103801    -0.00300
C2730       C  0.64534119  0.12556206  0.52786488    -0.02900
C2731       C  0.59500696  0.15984307  0.51698760     0.36400
C2732       C  0.66411104  0.11540385  0.56249660     0.40000
C2733       C  0.59505742  0.15865450  0.56388307     0.39100
C2734       C  0.66210105  0.11387245  0.51562607     0.36000
C2735       C  0.65610590  0.16411355  0.48983570     0.36700
C2736       C  0.59541456  0.10633401  0.44775333     0.40000
N2737       N  0.58103877  0.16707566  0.57358613    -0.38100
N2738       N  0.58140193  0.16932769  0.50770711    -0.39700
N2739       N  0.67855948  0.10718806  0.57171487    -0.37400
N2740       N  0.67548032  0.10458696  0.50581770    -0.39800
N2741       N  0.58744019  0.09590102  0.50495073    -0.39600
N2742       N  0.58260102  0.09503004  0.43951247    -0.37200
N2743       N  0.66654571  0.17274544  0.43285334    -0.38300
N2744       N  0.66826783  0.17585805  0.49844481    -0.39900
C2745       C  0.14064727  0.60772286  0.71908776    -0.04900
C2746       C  0.12600778  0.61906161  0.73294002     0.09300
C2747       C  0.10940606  0.63230964  0.72379003    -0.02300
C2748       C  0.10743586  0.63433863  0.70083491    -0.00500
C2749       C  0.12262542  0.62372803  0.68673349    -0.04100
C2750       C  0.13897201  0.60995171  0.69609358     0.02900
C2751       C  0.12769783  0.61691856  0.75730562     0.09700
C2752       C  0.09439386  0.64402378  0.73816232     0.35600
C2753       C  0.15337174  0.59702855  0.68216119     0.39000
C2754       C  0.14269956  0.62998681  0.76905736    -0.04500
C2755       C  0.14298007  0.62938081  0.79216983     0.02700
C2756       C  0.12775692  0.61615978  0.80370419    -0.04100
C2757       C  0.11315269  0.60260135  0.79183428    -0.00300
C2758       C  0.11333698  0.60281189  0.76870322    -0.02900
C2759       C  0.15751979  0.64442625  0.75731009     0.36400
C2760       C  0.09716688  0.58922676  0.80331972     0.40000
C2761       C  0.15929456  0.64203031  0.80401884     0.39100
C2762       C  0.09846036  0.58881364  0.75652391     0.36000
C2763       C  0.15731386  0.59359020  0.72859151     0.36700
C2764       C  0.08947310  0.64718318  0.69206203     0.40000
N2765       N  0.17236780  0.65202170  0.81347609    -0.38100
N2766       N  0.16929271  0.65596858  0.74790918    -0.39700
N2767       N  0.08437848  0.57861709  0.81249611    -0.37400
N2768       N  0.08664589  0.57764208  0.74674742    -0.39800
N2769       N  0.08250127  0.65334759  0.74969233    -0.39600
N2770       N  0.07462317  0.65711781  0.68563580    -0.37200
N2771       N  0.16478270  0.58661394  0.67108198    -0.38300
N2772       N  0.17059663  0.58234245  0.73623323    -0.39900
C2773       C  0.10671979  0.73108516  0.63303679    -0.04900
C2774       C  0.12239142  0.74172390  0.61979404     0.09300
C2775       C  0.13626263  0.72921517  0.60613802    -0.02300
C2776       C  0.13502308  0.70609229  0.60630587    -0.00500
C2777       C  0.11960587  0.69523405  0.61996561    -0.04100
C2778       C  0.10475617  0.70802805  0.63252316     0.02900
C2779       C  0.12328163  0.76625139  0.61930164     0.09700
C2780       C  0.15155319  0.74023446  0.59161204     0.35600
C2781       C  0.08684151  0.69786778  0.64431488     0.39000
C2782       C  0.13922917  0.77763843  0.63159564    -0.04500
C2783       C  0.13949145  0.80080281  0.63163749     0.02700
C2784       C  0.12368558  0.81269328  0.61942989    -0.04100
C2785       C  0.10768476  0.80119940  0.60720326    -0.00300
C2786       C  0.10765989  0.77808428  0.60695485    -0.02900
C2787       C  0.15533900  0.76544702  0.64421244     0.36400
C2788       C  0.09059855  0.81312305  0.59561713     0.40000
C2789       C  0.15635739  0.81233925  0.64382319     0.39100
C2790       C  0.09152249  0.76637196  0.59398645     0.36000
C2791       C  0.09264745  0.74399910  0.64731706     0.36700
C2792       C  0.14871248  0.69360150  0.59129849     0.40000
N2793       N  0.16982072  0.82154547  0.65353243    -0.38100
N2794       N  0.16820085  0.75567898  0.65422496    -0.39700
N2795       N  0.07692545  0.82266943  0.58650190    -0.37400
N2796       N  0.07870121  0.75696428  0.58363347    -0.39800
N2797       N  0.16369690  0.74905378  0.57998583    -0.39600
N2798       N  0.15949869  0.68362004  0.57924251    -0.37200
N2799       N  0.07188434  0.69037715  0.65325933    -0.38300
N2800       N  0.08156805  0.75436276  0.65876701    -0.39900
C2801       C  0.10858983  0.64209846  0.26881442    -0.04900
C2802       C  0.11917691  0.62499929  0.25728457     0.09300
C2803       C  0.12910179  0.60768160  0.26906664    -0.02300
C2804       C  0.12901855  0.60777949  0.29223999    -0.00500
C2805       C  0.11849363  0.62493493  0.30381544    -0.04100
C2806       C  0.10802756  0.64195590  0.29198798     0.02900
C2807       C  0.12017172  0.62536453  0.23268680     0.09700
C2808       C  0.13914271  0.58960260  0.25725813     0.35600
C2809       C  0.09717659  0.65966553  0.30366039     0.39000
C2810       C  0.13904145  0.63344680  0.22191847    -0.04500
C2811       C  0.14011209  0.63366157  0.19876650     0.02700
C2812       C  0.12243026  0.62549026  0.18624989    -0.04100
C2813       C  0.10350582  0.61750431  0.19701545    -0.00300
C2814       C  0.10232009  0.61760501  0.22014971    -0.02900
C2815       C  0.15732673  0.64159555  0.23475088     0.36400
C2816       C  0.08499065  0.60969338  0.18425397     0.40000
C2817       C  0.15957943  0.64188162  0.18781022     0.39100
C2818       C  0.08265047  0.60989790  0.23109631     0.36000
C2819       C  0.09845495  0.65994725  0.25675003     0.36700
C2820       C  0.13927212  0.58989326  0.30417710     0.40000
N2821       N  0.17508632  0.64844539  0.17902807    -0.38100
N2822       N  0.17188419  0.64805571  0.24507185    -0.39700
N2823       N  0.07022130  0.60347042  0.17408322    -0.37400
N2824       N  0.06689190  0.60387521  0.23981479    -0.39800
N2825       N  0.14703734  0.57514197  0.24778760    -0.39600
N2826       N  0.14745257  0.57565027  0.31373172    -0.37200
N2827       N  0.08850087  0.67377827  0.31297915    -0.38300
N2828       N  0.09039929  0.67416064  0.24705185    -0.39900
C2829       C  0.10437816  0.61192424  0.47174586    -0.04900
C2830       C  0.11474806  0.62955706  0.48257546     0.09300
C2831       C  0.12584824  0.64563098  0.47015284    -0.02300
C2832       C  0.12729940  0.64367353  0.44713276    -0.00500
C2833       C  0.11694207  0.62601676  0.43624040    -0.04100
C2834       C  0.10540144  0.61018537  0.44865262     0.02900
C2835       C  0.11564261  0.63026060  0.50716768     0.09700
C2836       C  0.13568956  0.66427839  0.48115577     0.35600
C2837       C  0.09546807  0.59152395  0.43775139     0.39000
C2838       C  0.13497174  0.62368722  0.51801823    -0.04500
C2839       C  0.13627660  0.62431306  0.54112365     0.02700
C2840       C  0.11789538  0.63112392  0.55389647    -0.04100
C2841       C  0.09875314  0.63857549  0.54270266    -0.00300
C2842       C  0.09762576  0.63788372  0.51952587    -0.02900
C2843       C  0.15362154  0.61609448  0.50521956     0.36400
C2844       C  0.08048146  0.64806230  0.55472875     0.40000
C2845       C  0.15687674  0.61808731  0.55134351     0.39100
C2846       C  0.07792396  0.64518801  0.50828800     0.36000
C2847       C  0.09291086  0.59541362  0.48445447     0.36700
C2848       C  0.13925562  0.66004438  0.43466539     0.40000
N2849       N  0.17352472  0.61342205  0.55923321    -0.38100
N2850       N  0.16844636  0.61010902  0.49493507    -0.39700
N2851       N  0.06592847  0.65578438  0.56423196    -0.37400
N2852       N  0.06218096  0.65094295  0.49933480    -0.39800
N2853       N  0.14344139  0.67917952  0.48997848    -0.39600
N2854       N  0.14887742  0.67305143  0.42474261    -0.37200
N2855       N  0.08766727  0.57658399  0.42903199    -0.38300
N2856       N  0.08370062  0.58231506  0.49464120    -0.39900
C2857       C  0.11638362  0.27814028  0.64371235    -0.04900
C2858       C  0.12890453  0.26613740  0.62837465     0.09300
C2859       C  0.14137786  0.27735987  0.61242620    -0.02300
C2860       C  0.14109966  0.30050552  0.61161537    -0.00500
C2861       C  0.12808682  0.31256469  0.62661312    -0.04100
C2862       C  0.11598508  0.30126647  0.64288667     0.02900
C2863       C  0.12848217  0.24158537  0.62862026     0.09700
C2864       C  0.15414799  0.26499133  0.59657793     0.35600
C2865       C  0.10366769  0.31343532  0.65926063     0.39000
C2866       C  0.11175415  0.23026554  0.61734369    -0.04500
C2867       C  0.11152115  0.20712793  0.61710627     0.02700
C2868       C  0.12813524  0.19515015  0.62803203    -0.04100
C2869       C  0.14466679  0.20650919  0.63966041    -0.00300
C2870       C  0.14477060  0.22967162  0.64000847    -0.02900
C2871       C  0.09475462  0.24252323  0.60602329     0.36400
C2872       C  0.16199085  0.19439583  0.65065513     0.40000
C2873       C  0.09377779  0.19563645  0.60617626     0.39100
C2874       C  0.16162860  0.24132356  0.65206851     0.36000
C2875       C  0.10380083  0.26659731  0.66028245     0.36700
C2876       C  0.15366810  0.31183069  0.59486769     0.40000
N2877       N  0.07958832  0.18643660  0.59756743    -0.38100
N2878       N  0.08120573  0.25238441  0.59705387    -0.39700
N2879       N  0.17582034  0.18469832  0.65937867    -0.37400
N2880       N  0.17502308  0.25066214  0.66173146    -0.39800
N2881       N  0.16428320  0.25507254  0.58392039    -0.39600
N2882       N  0.16369805  0.32087808  0.58153078    -0.37200
N2883       N  0.09393606  0.32316929  0.67237302    -0.38300
N2884       N  0.09375316  0.25734168  0.67345716    -0.39900
C2885       C  0.13559582  0.36113000  0.72432615    -0.04900
C2886       C  0.12419390  0.37736236  0.73628297     0.09300
C2887       C  0.11279005  0.39412513  0.72507210    -0.02300
C2888       C  0.11302800  0.39483147  0.70195200    -0.00500
C2889       C  0.12460163  0.37868640  0.68996813    -0.04100
C2890       C  0.13578732  0.36175553  0.70121584     0.02900
C2891       C  0.12452521  0.37702161  0.76077862     0.09700
C2892       C  0.10087922  0.41065876  0.73740562     0.35600
C2893       C  0.14688725  0.34455590  0.68900430     0.39000
C2894       C  0.14191098  0.38713032  0.77220588    -0.04500
C2895       C  0.14224876  0.38695431  0.79532590     0.02700
C2896       C  0.12515115  0.37667700  0.80711976    -0.04100
C2897       C  0.10778383  0.36647992  0.79565288    -0.00300
C2898       C  0.10752077  0.36660939  0.77251914    -0.02900
C2899       C  0.15950100  0.39761045  0.76008148     0.36400
C2900       C  0.08983023  0.35645231  0.80765066     0.40000
C2901       C  0.16053003  0.39678189  0.80696974     0.39100
C2902       C  0.08978742  0.35603052  0.76071961     0.36000
C2903       C  0.14699306  0.34370141  0.73587977     0.36700
C2904       C  0.10191755  0.41253705  0.69050964     0.40000
N2905       N  0.17512514  0.40455571  0.81628643    -0.38100
N2906       N  0.17351675  0.40591607  0.75033600    -0.39700
N2907       N  0.07548427  0.34852197  0.81723434    -0.37400
N2908       N  0.07567731  0.34757731  0.75125483    -0.39800
N2909       N  0.09134002  0.42378718  0.74730084    -0.39600
N2910       N  0.09312575  0.42666906  0.68133851    -0.37200
N2911       N  0.15565933  0.33080421  0.67924467    -0.38300
N2912       N  0.15606106  0.32980625  0.74513639    -0.39900
C2913       C  0.13648003  0.48046235  0.63520008    -0.04900
C2914       C  0.11993780  0.49157127  0.62346442     0.09300
C2915       C  0.10389710  0.47948128  0.61204589    -0.02300
C2916       C  0.10471745  0.45631127  0.61183342    -0.00500
C2917       C  0.12139775  0.44498413  0.62353976    -0.04100
C2918       C  0.13714093  0.45732711  0.63544792     0.02900
C2919       C  0.11996400  0.51611689  0.62253553     0.09700
C2920       C  0.08662573  0.49100333  0.60035832     0.35600
C2921       C  0.15382542  0.44638974  0.64848162     0.39000
C2922       C  0.13254456  0.52698247  0.60645268    -0.04500
C2923       C  0.13318066  0.55011777  0.60582400     0.02700
C2924       C  0.12085720  0.56258651  0.62107034    -0.04100
C2925       C  0.10870359  0.55160854  0.63754403    -0.00300
C2926       C  0.10817975  0.52846417  0.63818024    -0.02900
C2927       C  0.14484749  0.51422674  0.59051847     0.36400
C2928       C  0.09772216  0.56409972  0.65462357     0.40000
C2929       C  0.14645482  0.56094098  0.58935490     0.39100
C2930       C  0.09573525  0.51728082  0.65508646     0.36000
C2931       C  0.15290758  0.49298235  0.64701554     0.36700
C2932       C  0.08885460  0.44432729  0.59876798     0.40000
N2933       N  0.15729988  0.56930661  0.57622005    -0.38100
N2934       N  0.15460576  0.50396869  0.57784643    -0.39700
N2935       N  0.08915782  0.57408866  0.66833162    -0.37400
N2936       N  0.08581423  0.50833455  0.66857822    -0.39800
N2937       N  0.07281708  0.50024762  0.59113357    -0.39600
N2938       N  0.07620355  0.43483036  0.58828400    -0.37200
N2939       N  0.16717276  0.43771130  0.65886108    -0.38300
N2940       N  0.16599298  0.50303609  0.65637930    -0.39900
C2941       C  0.11390768  0.39274317  0.27365423    -0.04900
C2942       C  0.12481726  0.37642272  0.26136697     0.09300
C2943       C  0.13559063  0.35903625  0.27226776    -0.02300
C2944       C  0.13550414  0.35799866  0.29539277    -0.00500
C2945       C  0.12427354  0.37414351  0.30769426    -0.04100
C2946       C  0.11345430  0.39151894  0.29674788     0.02900
C2947       C  0.12497180  0.37753390  0.23685880     0.09700
C2948       C  0.14674839  0.34223201  0.25960706     0.35600
C2949       C  0.10252262  0.40860015  0.30927785     0.39000
C2950       C  0.14248175  0.38785280  0.22578821    -0.04500
C2951       C  0.14284833  0.38851403  0.20265010     0.02700
C2952       C  0.12576176  0.37867358  0.19047031    -0.04100
C2953       C  0.10809560  0.36857887  0.20160602    -0.00300
C2954       C  0.10765324  0.36814458  0.22473820    -0.02900
C2955       C  0.16015471  0.39769133  0.23829691     0.36400
C2956       C  0.09008692  0.35908511  0.18927989     0.40000
C2957       C  0.16117467  0.39869577  0.19137995     0.39100
C2958       C  0.08933633  0.35812423  0.23615618     0.36000
C2959       C  0.10348744  0.41100516  0.26247782     0.36700
C2960       C  0.14662753  0.34010490  0.30651711     0.40000
N2961       N  0.17578554  0.40680178  0.18236110    -0.38100
N2962       N  0.17421884  0.40551217  0.24835444    -0.39700
N2963       N  0.07570680  0.35153519  0.17945882    -0.37400
N2964       N  0.07470518  0.35022746  0.24532383    -0.39800
N2965       N  0.15562497  0.32884761  0.24944408    -0.39600
N2966       N  0.15552547  0.32587719  0.31543484    -0.37200
N2967       N  0.09382966  0.42221030  0.31930333    -0.38300
N2968       N  0.09528229  0.42562639  0.25354227    -0.39900
C2969       C  0.10859900  0.52336430  0.35277608    -0.04900
C2970       C  0.12157386  0.51192704  0.36817756     0.09300
C2971       C  0.13359516  0.52372959  0.38402320    -0.02300
C2972       C  0.13233822  0.54684068  0.38475207    -0.00500
C2973       C  0.11940738  0.55838731  0.36928942    -0.04100
C2974       C  0.10750754  0.54651036  0.35329045     0.02900
C2975       C  0.12164642  0.48734380  0.36853111     0.09700
C2976       C  0.14720056  0.51198852  0.39963952     0.35600
C2977       C  0.09447731  0.55807402  0.33705769     0.39000
C2978       C  0.13642216  0.47537657  0.35531056    -0.04500
C2979       C  0.13657769  0.45220147  0.35598414     0.02700
C2980       C  0.12215637  0.44078587  0.37022775    -0.04100
C2981       C  0.10699460  0.45292731  0.38306952    -0.00300
C2982       C  0.10685981  0.47606754  0.38227103    -0.02900
C2983       C  0.15155275  0.48699407  0.34109572     0.36400
C2984       C  0.09170834  0.44179020  0.39749955     0.40000
C2985       C  0.15094030  0.44015690  0.34125924     0.39100
C2986       C  0.09163807  0.48842549  0.39582912     0.36000
C2987       C  0.09636695  0.51121893  0.33638995     0.36700
C2988       C  0.14353389  0.55864746  0.40212087     0.40000
N2989       N  0.16228433  0.43053129  0.32942353    -0.38100
N2990       N  0.16364714  0.49628753  0.32979374    -0.39700
N2991       N  0.07933862  0.43304142  0.40893229    -0.37400
N2992       N  0.07958734  0.49836799  0.40665748    -0.39800
N2993       N  0.15810683  0.50256591  0.41202346    -0.39600
N2994       N  0.15230310  0.56807665  0.41605472    -0.37200
N2995       N  0.08405906  0.56731825  0.32412802    -0.38300
N2996       N  0.08667014  0.50147348  0.32331805    -0.39900
C2997       C  0.13183643  0.39535495  0.52309773    -0.04900
C2998       C  0.12501757  0.37634558  0.51178893     0.09300
C2999       C  0.11802300  0.35776458  0.52370260    -0.02300
C3000       C  0.11766339  0.35826874  0.54683464    -0.00500
C3001       C  0.12466688  0.37723008  0.55812017    -0.04100
C3002       C  0.13178859  0.39575685  0.54621424     0.02900
C3003       C  0.12495666  0.37608926  0.48724269     0.09700
C3004       C  0.11137189  0.33809481  0.51211104     0.35600
C3005       C  0.13844721  0.41546875  0.55776725     0.39000
C3006       C  0.14467348  0.37299392  0.47562556    -0.04500
C3007       C  0.14485508  0.37351206  0.45246353     0.02700
C3008       C  0.12496644  0.37667661  0.44045533    -0.04100
C3009       C  0.10517625  0.38009914  0.45255415    -0.00300
C3010       C  0.10529234  0.37972402  0.47571614    -0.02900
C3011       C  0.16488725  0.36918398  0.48768817     0.36400
C3012       C  0.08449809  0.38460905  0.44160907     0.40000
C3013       C  0.16583532  0.37092501  0.44144498     0.39100
C3014       C  0.08507994  0.38328954  0.48787693     0.36000
C3015       C  0.13868962  0.41456882  0.51086209     0.36700
C3016       C  0.11046665  0.33915170  0.55904730     0.40000
N3017       N  0.18270736  0.36905578  0.43288479    -0.38100
N3018       N  0.18096539  0.36615849  0.49734789    -0.39700
N3019       N  0.06787386  0.38819731  0.43312535    -0.37400
N3020       N  0.06900526  0.38607906  0.49762693    -0.39800
N3021       N  0.10608198  0.32240144  0.50284780    -0.39600
N3022       N  0.10469568  0.32393046  0.56881026    -0.37200
N3023       N  0.14369784  0.43119221  0.56700499    -0.38300
N3024       N  0.14415668  0.42984661  0.50101902    -0.39900
C3025       C  0.76811267  0.88995165  0.36402297    -0.04900
C3026       C  0.75785278  0.87170393  0.37387559     0.09300
C3027       C  0.77080215  0.85503576  0.38342605    -0.02300
C3028       C  0.79389779  0.85691268  0.38368847    -0.00500
C3029       C  0.80417238  0.87547107  0.37430524    -0.04100
C3030       C  0.79118742  0.89188727  0.36430496     0.02900
C3031       C  0.73333110  0.87074668  0.37528238     0.09700
C3032       C  0.76028580  0.83600483  0.39304853     0.35600
C3033       C  0.80145792  0.91129105  0.35518940     0.39000
C3034       C  0.72109207  0.85892389  0.35961549    -0.04500
C3035       C  0.69791708  0.85872964  0.36068302     0.02700
C3036       C  0.68686226  0.87067485  0.37726610    -0.04100
C3037       C  0.69921443  0.88209526  0.39322013    -0.00300
C3038       C  0.72234885  0.88208176  0.39223841    -0.02900
C3039       C  0.73240365  0.84727706  0.34219589     0.36400
C3040       C  0.68814929  0.89332077  0.41109432     0.40000
C3041       C  0.68546868  0.84676680  0.34432516     0.39100
C3042       C  0.73496959  0.89373531  0.40869295     0.36000
C3043       C  0.75482294  0.90684459  0.35375575     0.36700
C3044       C  0.80709724  0.83953764  0.39328573     0.40000
N3045       N  0.67552518  0.83716746  0.33131733    -0.38100
N3046       N  0.74147235  0.83801892  0.32830203    -0.39700
N3047       N  0.67932311  0.90219575  0.42538870    -0.37400
N3048       N  0.74513554  0.90299100  0.42177441    -0.39800
N3049       N  0.75185773  0.82078856  0.40063507    -0.39600
N3050       N  0.81762895  0.82568250  0.40092775    -0.37200
N3051       N  0.80953035  0.92688385  0.34800906    -0.38300
N3052       N  0.74419183  0.92028129  0.34553776    -0.39900
C3053       C  0.85712353  0.77902409  0.35872278    -0.04900
C3054       C  0.87245078  0.76713653  0.37137055     0.09300
C3055       C  0.88787052  0.77846577  0.38436041    -0.02300
C3056       C  0.88789732  0.80160490  0.38483867    -0.00500
C3057       C  0.87229876  0.81358944  0.37248339    -0.04100
C3058       C  0.85694282  0.80217616  0.35934871     0.02900
C3059       C  0.87210044  0.74259023  0.37147842     0.09700
C3060       C  0.90363910  0.76620324  0.39733636     0.35600
C3061       C  0.84030924  0.81417790  0.34722082     0.39000
C3062       C  0.88463599  0.73065419  0.35608981    -0.04500
C3063       C  0.88491425  0.70751378  0.35674309     0.02700
C3064       C  0.87288589  0.69617727  0.37303821    -0.04100
C3065       C  0.86027832  0.70818819  0.38839450    -0.00300
C3066       C  0.85970556  0.73130987  0.38743803    -0.02900
C3067       C  0.89729138  0.74225777  0.33962319     0.36400
C3068       C  0.84869401  0.69683642  0.40581528     0.40000
C3069       C  0.89714514  0.69536911  0.34028087     0.39100
C3070       C  0.84645868  0.74360297  0.40295396     0.36000
C3071       C  0.84135866  0.76734265  0.34528777     0.36700
C3072       C  0.90436583  0.81305782  0.39763878     0.40000
N3073       N  0.90683704  0.68563185  0.32714511    -0.38100
N3074       N  0.90739486  0.75153933  0.32650444    -0.39700
N3075       N  0.83958684  0.68775927  0.41978245    -0.37400
N3076       N  0.83584470  0.75348603  0.41523812    -0.39800
N3077       N  0.91615063  0.75633792  0.40769348    -0.39600
N3078       N  0.91752544  0.82220592  0.40779986    -0.37200
N3079       N  0.82698977  0.82377237  0.33763765    -0.38300
N3080       N  0.82881614  0.75798219  0.33456031    -0.39900
C3081       C  0.89156782  0.27820079  0.36006351    -0.04900
C3082       C  0.88077882  0.26749211  0.37752763     0.09300
C3083       C  0.87094492  0.27998154  0.39436527    -0.02300
C3084       C  0.87168684  0.30308798  0.39365792    -0.00500
C3085       C  0.88205798  0.31386067  0.37592595    -0.04100
C3086       C  0.89215744  0.30133739  0.35921325     0.02900
C3087       C  0.87978611  0.24297740  0.37829720     0.09700
C3088       C  0.86006478  0.26896618  0.41243547     0.35600
C3089       C  0.90258934  0.31225297  0.34081599     0.39000
C3090       C  0.89549434  0.23108464  0.39045153    -0.04500
C3091       C  0.89430647  0.20799588  0.39161320     0.02700
C3092       C  0.87741096  0.19662114  0.38053146    -0.04100
C3093       C  0.86171338  0.20860236  0.36829073    -0.00300
C3094       C  0.86289584  0.23170382  0.36722601    -0.02900
C3095       C  0.91299776  0.24269454  0.40162278     0.36400
C3096       C  0.84394693  0.19722448  0.35728355     0.40000
C3097       C  0.91099516  0.19598917  0.40358641     0.39100
C3098       C  0.84664619  0.24397778  0.35487551     0.36000
C3099       C  0.90203885  0.26534013  0.34298437     0.36700
C3100       C  0.86241662  0.31574828  0.41159275     0.40000
N3101       N  0.92449122  0.18665057  0.41314584    -0.38100
N3102       N  0.92694499  0.25201003  0.41049591    -0.39700
N3103       N  0.82977454  0.18813244  0.34853036    -0.37400
N3104       N  0.83371729  0.25383894  0.34503769    -0.39800
N3105       N  0.85140081  0.26011978  0.42682380    -0.39600
N3106       N  0.85512989  0.32581014  0.42597042    -0.37200
N3107       N  0.91085995  0.32101848  0.32614592    -0.38300
N3108       N  0.91041439  0.25503724  0.32939271    -0.39900
C3109       C  0.77335564  0.11845823  0.36722181    -0.04900
C3110       C  0.76188130  0.13477532  0.37896774     0.09300
C3111       C  0.77356960  0.15077888  0.39086636    -0.02300
C3112       C  0.79671995  0.15035121  0.39120272    -0.00500
C3113       C  0.80826878  0.13366903  0.37989289    -0.04100
C3114       C  0.79647876  0.11777496  0.36779991     0.02900
C3115       C  0.73737554  0.13466769  0.37933639     0.09700
C3116       C  0.76167973  0.16760623  0.40282298     0.35600
C3117       C  0.80805114  0.10016408  0.35666616     0.39000
C3118       C  0.72619182  0.12263650  0.39562078    -0.04500
C3119       C  0.70305981  0.12232755  0.39598484     0.02700
C3120       C  0.69099378  0.13376647  0.37978806    -0.04100
C3121       C  0.70225828  0.14570339  0.36339179    -0.00300
C3122       C  0.72539946  0.14625719  0.36328191    -0.02900
C3123       C  0.73859082  0.11042316  0.41187476     0.36400
C3124       C  0.69009068  0.15663188  0.34607376     0.40000
C3125       C  0.69171316  0.11069014  0.41338745     0.39100
C3126       C  0.73696541  0.15849749  0.34647678     0.36000
C3127       C  0.76126240  0.10224579  0.35470571     0.36700
C3128       C  0.80863269  0.16747439  0.40264424     0.40000
N3129       N  0.68266217  0.10146176  0.42728883    -0.38100
N3130       N  0.74856792  0.10063025  0.42474216    -0.39700
N3131       N  0.68032477  0.16524542  0.33223597    -0.37400
N3132       N  0.74620981  0.16825339  0.33307707    -0.39800
N3133       N  0.75211564  0.18097812  0.41236643    -0.39600
N3134       N  0.81813748  0.18118705  0.41167549    -0.37200
N3135       N  0.81729049  0.08606713  0.34787261    -0.38300
N3136       N  0.75155650  0.08938463  0.34469355    -0.39900
C3137       C  0.88712299  0.02871980  0.37452630    -0.04900
C3138       C  0.86829910  0.01791527  0.38257578     0.09300
C3139       C  0.85084178  0.03039260  0.39142501    -0.02300
C3140       C  0.85212451  0.05355130  0.39200115    -0.00500
C3141       C  0.87085551  0.06436646  0.38362373    -0.04100
C3142       C  0.88841183  0.05181868  0.37507454     0.02900
C3143       C  0.86708100  0.99331827  0.38180149     0.09700
C3144       C  0.83149963  0.01933585  0.39974511     0.35600
C3145       C  0.90821997  0.06261021  0.36756518     0.39000
C3146       C  0.87177319  0.98082641  0.40064451    -0.04500
C3147       C  0.87178613  0.95763918  0.39973415     0.02700
C3148       C  0.86752318  0.94646605  0.37960593    -0.04100
C3149       C  0.86252049  0.95939758  0.36072572    -0.00300
C3150       C  0.86210689  0.98256205  0.36199499    -0.02900
C3151       C  0.87694445  0.99200376  0.42102214     0.36400
C3152       C  0.85759295  0.94927294  0.33976144     0.40000
C3153       C  0.87659354  0.94567409  0.41975187     0.39100
C3154       C  0.85649386  0.99551822  0.34279817     0.36000
C3155       C  0.90528799  0.01597732  0.36580950     0.36700
C3156       C  0.83392308  0.06625186  0.40069660     0.40000
N3157       N  0.88031896  0.93633798  0.43586254    -0.38100
N3158       N  0.88104363  0.00097850  0.43723831    -0.39700
N3159       N  0.85373642  0.94140050  0.32291600    -0.37400
N3160       N  0.85197909  0.00587723  0.32753992    -0.39800
N3161       N  0.81611361  0.01043508  0.40641643    -0.39600
N3162       N  0.81938458  0.07636012  0.40762867    -0.37200
N3163       N  0.92418132  0.07103593  0.36170979    -0.38300
N3164       N  0.91974759  0.00579640  0.35882893    -0.39900
C3165       C  0.09900572  0.77399527  0.36898351    -0.04900
C3166       C  0.11737193  0.76168273  0.37597414     0.09300
C3167       C  0.13597511  0.77261568  0.38436969    -0.02300
C3168       C  0.13612265  0.79571606  0.38599881    -0.00500
C3169       C  0.11799365  0.80806315  0.37844201    -0.04100
C3170       C  0.09946250  0.79713399  0.36983704     0.02900
C3171       C  0.11714238  0.73714230  0.37450467     0.09700
C3172       C  0.15506668  0.76003954  0.39106711     0.35600
C3173       C  0.08073228  0.80969691  0.36212531     0.39000
C3174       C  0.12749561  0.72641162  0.35675882    -0.04500
C3175       C  0.12761281  0.70328236  0.35556535     0.02700
C3176       C  0.11704738  0.69073716  0.37194629    -0.04100
C3177       C  0.10660021  0.70150679  0.38966322    -0.00300
C3178       C  0.10674601  0.72462722  0.39096977    -0.02900
C3179       C  0.13793416  0.73924853  0.33966881     0.36400
C3180       C  0.09639800  0.68880330  0.40701487     0.40000
C3181       C  0.13823720  0.69240049  0.33722766     0.39100
C3182       C  0.09641977  0.73561564  0.40940016     0.36000
C3183       C  0.07963533  0.76278826  0.36093104     0.36700
C3184       C  0.15515079  0.80680747  0.39499688     0.40000
N3185       N  0.14671610  0.68367518  0.32263060    -0.38100
N3186       N  0.14624694  0.74952863  0.32604887    -0.39700
N3187       N  0.08831793  0.67871093  0.42091681    -0.37400
N3188       N  0.08819376  0.74443929  0.42407882    -0.39800
N3189       N  0.17034376  0.74996173  0.39621685    -0.39600
N3190       N  0.17029094  0.81564733  0.40226134    -0.37200
N3191       N  0.06581369  0.81970869  0.35590246    -0.38300
N3192       N  0.06414273  0.75379729  0.35466644    -0.39900
C3193       C  0.26861365  0.88300546  0.36099242    -0.04900
C3194       C  0.25768205  0.86987943  0.37660852     0.09300
C3195       C  0.27003210  0.85658254  0.39099307    -0.02300
C3196       C  0.29321329  0.85655078  0.38992662    -0.00500
C3197       C  0.30424710  0.86980501  0.37435518    -0.04100
C3198       C  0.29177509  0.88283763  0.35971943     0.02900
C3199       C  0.23307696  0.87007070  0.37781452     0.09700
C3200       C  0.25880303  0.84316370  0.40711046     0.35600
C3201       C  0.30271328  0.89549757  0.34279961     0.39000
C3202       C  0.22073484  0.85489185  0.36547614    -0.04500
C3203       C  0.19755724  0.85557927  0.36592375     0.02700
C3204       C  0.18651041  0.87148372  0.37878300    -0.04100
C3205       C  0.19894019  0.88644894  0.39143770    -0.00300
C3206       C  0.22212100  0.88569696  0.39095852    -0.02900
C3207       C  0.23197615  0.83849691  0.35236102     0.36400
C3208       C  0.18793388  0.90318154  0.40435283     0.40000
C3209       C  0.18510824  0.83945153  0.35363846     0.39100
C3210       C  0.23479409  0.90107876  0.40392200     0.36000
C3211       C  0.25592288  0.89680437  0.34631256     0.36700
C3212       C  0.30567797  0.84342086  0.40540741     0.40000
N3213       N  0.17515269  0.82655290  0.34391375    -0.38100
N3214       N  0.24098295  0.82539455  0.34195094    -0.39700
N3215       N  0.17912722  0.91654711  0.41460461    -0.37400
N3216       N  0.24494370  0.91330893  0.41428296    -0.39800
N3217       N  0.24979258  0.83249462  0.41996669    -0.39600
N3218       N  0.31562868  0.83295501  0.41775603    -0.37200
N3219       N  0.31144636  0.90547050  0.32921092    -0.38300
N3220       N  0.24571562  0.90785601  0.33470866    -0.39900
C3221       C  0.01970116  0.89321211  0.36642857    -0.04900
C3222       C  0.00747039  0.87809841  0.37896169     0.09300
C3223       C  0.01849056  0.86231191  0.39183985    -0.02300
C3224       C  0.04165752  0.86153138  0.39208944    -0.00500
C3225       C  0.05397800  0.87666699  0.37951749    -0.04100
C3226       C  0.04285861  0.89264111  0.36683219     0.02900
C3227       C  0.98289497  0.87875807  0.37850837     0.09700
C3228       C  0.00589049  0.84677273  0.40471476     0.35600
C3229       C  0.05521381  0.90901925  0.35477197     0.39000
C3230       C  0.97117444  0.86421560  0.36487484    -0.04500
C3231       C  0.94801463  0.86474771  0.36448588     0.02700
C3232       C  0.93639865  0.88018370  0.37742023    -0.04100
C3233       C  0.94821002  0.89480967  0.39099368    -0.00300
C3234       C  0.97136310  0.89394151  0.39167307    -0.02900
C3235       C  0.98303658  0.84866127  0.35127652     0.36400
C3236       C  0.93663890  0.91125483  0.40375156     0.40000
C3237       C  0.93615731  0.84879282  0.35140465     0.39100
C3238       C  0.98340616  0.90861223  0.40600156     0.36000
C3239       C  0.00837024  0.90926429  0.35297216     0.36700
C3240       C  0.05273827  0.84464567  0.40472593     0.40000
N3241       N  0.92668895  0.83600732  0.34106559    -0.38100
N3242       N  0.99256407  0.83627869  0.34045277    -0.39700
N3243       N  0.92749662  0.92447314  0.41389052    -0.37400
N3244       N  0.99305883  0.92025984  0.41745152    -0.39800
N3245       N  0.99576339  0.83438230  0.41492078    -0.39600
N3246       N  0.06155754  0.83112926  0.41475624    -0.37200
N3247       N  0.06509773  0.92213532  0.34525600    -0.38300
N3248       N  0.99928522  0.92202113  0.34221703    -0.39900
C3249       C  0.27303531  0.13363893  0.35798006    -0.04900
C3250       C  0.26183703  0.12058693  0.37344375     0.09300
C3251       C  0.27387273  0.10754519  0.38831102    -0.02300
C3252       C  0.29705157  0.10777315  0.38793975    -0.00500
C3253       C  0.30835847  0.12087609  0.37244237    -0.04100
C3254       C  0.29618715  0.13380223  0.35744497     0.02900
C3255       C  0.23728031  0.12105490  0.37432576     0.09700
C3256       C  0.26232638  0.09398392  0.40408588     0.35600
C3257       C  0.30740825  0.14691313  0.34104444     0.39000
C3258       C  0.22489994  0.10522469  0.36286928    -0.04500
C3259       C  0.20173183  0.10613045  0.36317458     0.02700
C3260       C  0.19083763  0.12284088  0.37506518    -0.04100
C3261       C  0.20329173  0.13874232  0.38642720    -0.00300
C3262       C  0.22642536  0.13776565  0.38614343    -0.02900
C3263       C  0.23608797  0.08793927  0.35090290     0.36400
C3264       C  0.19230694  0.15659175  0.39777570     0.40000
C3265       C  0.18913101  0.08951828  0.35172350     0.39100
C3266       C  0.23914790  0.15394739  0.39805256     0.36000
C3267       C  0.26061648  0.14682561  0.34252243     0.36700
C3268       C  0.30919690  0.09524777  0.40415765     0.40000
N3269       N  0.17907300  0.07628305  0.34257986    -0.38100
N3270       N  0.24509181  0.07413063  0.34143921    -0.39700
N3271       N  0.18349275  0.17087016  0.40670983    -0.37400
N3272       N  0.24933719  0.16680875  0.40757063    -0.39800
N3273       N  0.25309161  0.08310937  0.41660105    -0.39600
N3274       N  0.31890865  0.08534460  0.41714852    -0.37200
N3275       N  0.31636218  0.15738095  0.32798754    -0.38300
N3276       N  0.25063601  0.15731099  0.33021522    -0.39900
C3277       C  0.14088843  0.27394409  0.39202246    -0.04900
C3278       C  0.12646641  0.26160928  0.37881563     0.09300
C3279       C  0.11216520  0.27251254  0.36423211    -0.02300
C3280       C  0.11220019  0.29564167  0.36288954    -0.00500
C3281       C  0.12650295  0.30814973  0.37626765    -0.04100
C3282       C  0.14098558  0.29709712  0.39074865     0.02900
C3283       C  0.12673626  0.23702243  0.37978641     0.09700
C3284       C  0.09753582  0.25982421  0.35042284     0.35600
C3285       C  0.15565546  0.30944751  0.40480851     0.39000
C3286       C  0.11158178  0.22567928  0.39311718    -0.04500
C3287       C  0.11133677  0.20250082  0.39334686     0.02700
C3288       C  0.12636970  0.19049857  0.38030067    -0.04100
C3289       C  0.14196368  0.20192867  0.36746497    -0.00300
C3290       C  0.14206629  0.22508465  0.36715552    -0.02900
C3291       C  0.09625667  0.23793365  0.40662138     0.36400
C3292       C  0.15844289  0.18988445  0.35514800     0.40000
C3293       C  0.09512424  0.19104694  0.40647701     0.39100
C3294       C  0.15800132  0.23673443  0.35387432     0.36000
C3295       C  0.15555977  0.26269267  0.40703445     0.36700
C3296       C  0.09805624  0.30646702  0.34706220     0.40000
N3297       N  0.08216320  0.18188118  0.41689368    -0.38100
N3298       N  0.08408447  0.24772836  0.41744862    -0.39700
N3299       N  0.17166076  0.18026958  0.34543573    -0.37400
N3300       N  0.17071733  0.24611805  0.34335751    -0.39800
N3301       N  0.08586968  0.24967513  0.33942557    -0.39600
N3302       N  0.08682883  0.31512934  0.33441715    -0.37200
N3303       N  0.16745059  0.31920555  0.41602034    -0.38300
N3304       N  0.16722743  0.25362285  0.41897399    -0.39900
C3305       C  0.02418042  0.10795636  0.39296410    -0.04900
C3306       C  0.01241890  0.12648369  0.38552312     0.09300
C3307       C  0.02389959  0.14478487  0.37723222    -0.02300
C3308       C  0.04700801  0.14429640  0.37570436    -0.00500
C3309       C  0.05878873  0.12565952  0.38290764    -0.04100
C3310       C  0.04732604  0.10758918  0.39179782     0.02900
C3311       C  0.98783288  0.12640799  0.38544740     0.09700
C3312       C  0.01184010  0.16415306  0.37038851     0.35600
C3313       C  0.05931625  0.08833000  0.39908690     0.39000
C3314       C  0.97599338  0.13216983  0.40441003    -0.04500
C3315       C  0.95278280  0.13249911  0.40416369     0.02700
C3316       C  0.94101785  0.12746610  0.38455743    -0.04100
C3317       C  0.95333778  0.12170140  0.36547850    -0.00300
C3318       C  0.97648965  0.12092866  0.36613067    -0.02900
C3319       C  0.98786214  0.13802364  0.42420512     0.36400
C3320       C  0.94261145  0.11633309  0.34490669     0.40000
C3321       C  0.94142486  0.13847281  0.42422866     0.39100
C3322       C  0.98883262  0.11437329  0.34681228     0.36000
C3323       C  0.01237998  0.08918516  0.40155806     0.36700
C3324       C  0.05867491  0.16313249  0.36704243     0.40000
N3325       N  0.93256655  0.14323174  0.44035944    -0.38100
N3326       N  0.99735741  0.14271183  0.43995217    -0.39700
N3327       N  0.93424073  0.11208330  0.32840841    -0.37400
N3328       N  0.99870674  0.10909160  0.33146049    -0.39800
N3329       N  0.00214420  0.17960118  0.36503883    -0.39600
N3330       N  0.06793444  0.17817240  0.36010553    -0.37200
N3331       N  0.06890489  0.07297102  0.40487612    -0.38300
N3332       N  0.00290815  0.07424746  0.40842622    -0.39900
C3333       C  0.13991800  0.02295913  0.38950092    -0.04900
C3334       C  0.12473842  0.01136879  0.37639920     0.09300
C3335       C  0.10982709  0.02318309  0.36311062    -0.02300
C3336       C  0.10938432  0.04635131  0.36371527    -0.00500
C3337       C  0.12457397  0.05798322  0.37684943    -0.04100
C3338       C  0.14016406  0.04612007  0.38936427     0.02900
C3339       C  0.12401139  0.98672478  0.37713310     0.09700
C3340       C  0.09491854  0.01143478  0.34877632     0.35600
C3341       C  0.15699730  0.05769613  0.40156977     0.39000
C3342       C  0.10638159  0.97595838  0.38769239    -0.04500
C3343       C  0.10560827  0.95281286  0.38844437     0.02700
C3344       C  0.12271958  0.94024174  0.37907970    -0.04100
C3345       C  0.14056683  0.95098160  0.36891808    -0.00300
C3346       C  0.14104148  0.97410625  0.36763291    -0.02900
C3347       C  0.08901756  0.98876901  0.39782130     0.36400
C3348       C  0.15883693  0.93821730  0.36042663     0.40000
C3349       C  0.08684716  0.94193895  0.39825516     0.39100
C3350       C  0.15900612  0.98492738  0.35639782     0.36000
C3351       C  0.15520566  0.01100590  0.40331922     0.36700
C3352       C  0.09261886  0.05812574  0.35154219     0.40000
N3353       N  0.07182194  0.93328424  0.40599247    -0.38100
N3354       N  0.07517681  0.99908163  0.40579543    -0.39700
N3355       N  0.17345596  0.92799063  0.35384400    -0.37400
N3356       N  0.17337336  0.99354474  0.34746562    -0.39800
N3357       N  0.08306059  0.00203982  0.33732052    -0.39600
N3358       N  0.07915356  0.06752694  0.34197537    -0.37200
N3359       N  0.17049854  0.06694957  0.41117693    -0.38300
N3360       N  0.16742237  0.00143257  0.41427908    -0.39900
loop_ 
_geom_bond_atom_site_label_1 
_geom_bond_atom_site_label_2 
_geom_bond_distance 
_geom_bond_site_symmetry_2 
_ccdc_geom_bond_type 
O1           Ni9   1.922       .  S
O1           C11   1.282       .  A
O2           Ni9   1.921       .  S
O2           C12   1.282       .  A
O3           Ni9   1.920       .  S
O3           C13   1.282       .  A
O4           Ni9   1.919       .  S
O4           C14   1.282       .  A
O5          Ni10   1.922       .  S
O5           C14   1.282       .  A
O6          Ni10   1.920       .  S
O6           C13   1.282       .  A
O7          Ni10   1.915       .  S
O7           C12   1.281       .  A
O8          Ni10   1.916       .  S
O8           C11   1.280       .  A
Ni9         Ni10   2.389       .  S
C11        C3309   1.482       .  S
C12        C3260   1.484       .  S
C13        C3337   1.491       .  S
C14        C3288   1.488       .  S
O15         Ni23   1.923       .  S
O15          C25   1.282       .  A
O16         Ni23   1.924       .  S
O16          C26   1.282       .  A
O17         Ni23   1.919       .  S
O17          C27   1.281       .  A
O18         Ni23   1.920       .  S
O18          C28   1.282       .  A
O19         Ni24   1.920       .  S
O19          C28   1.282       .  A
O20         Ni24   1.919       .  S
O20          C27   1.282       .  A
O21         Ni24   1.917       .  S
O21          C26   1.281       .  A
O22         Ni24   1.916       .  S
O22          C25   1.280       .  A
Ni23        Ni24   2.389       .  S
C25        C3169   1.483       .  S
C26        C3344   1.485       .  S
C27        C3225   1.488       .  S
C28        C3204   1.490       .  S
O29         Ni37   1.916       .  S
O29          C39   1.280       .  A
O30         Ni37   1.920       .  S
O30          C40   1.281       .  A
O31         Ni37   1.914       .  S
O31          C41   1.280       .  A
O32         Ni37   1.915       .  S
O32          C42   1.281       .  A
O33         Ni38   1.921       .  S
O33          C42   1.282       .  A
O34         Ni38   1.918       .  S
O34          C41   1.281       .  A
O35         Ni38   1.925       .  S
O35          C40   1.282       .  A
O36         Ni38   1.924       .  S
O36          C39   1.282       .  A
Ni37        Ni38   2.384       .  S
C39        C3092   1.487       .  S
C40        C3141   1.487       .  S
C41        C3113   1.483       .  S
C42        C3316   1.511       .  S
O43         Ni51   1.920       .  S
O43          C53   1.281       .  A
O44         Ni51   1.917       .  S
O44          C54   1.281       .  A
O45         Ni51   1.917       .  S
O45          C55   1.281       .  A
O46         Ni51   1.922       .  S
O46          C56   1.282       .  A
O47         Ni52   1.922       .  S
O47          C56   1.282       .  A
O48         Ni52   1.920       .  S
O48          C55   1.282       .  A
O49         Ni52   1.919       .  S
O49          C54   1.281       .  A
O50         Ni52   1.918       .  S
O50          C53   1.281       .  A
Ni51        Ni52   2.384       .  S
C53        C3232   1.487       .  S
C54        C3029   1.484       .  S
C55        C3057   1.487       .  S
C56        C3148   1.515       .  S
O57         Ni65   1.918       .  S
O57          C67   1.281       .  A
O58         Ni65   1.918       .  S
O58          C68   1.281       .  A
O59         Ni65   1.919       .  S
O59          C69   1.282       .  A
O60         Ni65   1.917       .  S
O60          C70   1.281       .  A
O61         Ni66   1.916       .  S
O61          C70   1.280       .  A
O62         Ni66   1.917       .  S
O62          C69   1.281       .  A
O63         Ni66   1.924       .  S
O63          C68   1.282       .  A
O64         Ni66   1.922       .  S
O64          C67   1.283       .  A
Ni65        Ni66   2.382       .  S
C67        C2980   1.494       .  S
C68        C3281   1.494       .  S
C69        C3008   1.512       .  S
C70        C2945   1.481       .  S
O71         Ni79   1.917       .  S
O71          C81   1.281       .  A
O72         Ni79   1.915       .  S
O72          C82   1.280       .  A
O73         Ni79   1.917       .  S
O73          C83   1.282       .  A
O74         Ni79   1.918       .  S
O74          C84   1.281       .  A
O75         Ni80   1.918       .  S
O75          C84   1.282       .  A
O76         Ni80   1.921       .  S
O76          C83   1.282       .  A
O77         Ni80   1.917       .  S
O77          C82   1.280       .  A
O78         Ni80   1.913       .  S
O78          C81   1.280       .  A
Ni79        Ni80   2.389       .  S
C81        C2889   1.479       .  S
C82        C3001   1.478       .  S
C83        C2917   1.497       .  S
C84        C2861   1.486       .  S
O85         Ni93   1.922       .  S
O85          C95   1.282       .  A
O86         Ni93   1.923       .  S
O86          C96   1.282       .  A
O87         Ni93   1.918       .  S
O87          C97   1.281       .  A
O88         Ni93   1.921       .  S
O88          C98   1.281       .  A
O89         Ni94   1.923       .  S
O89          C98   1.282       .  A
O90         Ni94   1.923       .  S
O90          C97   1.282       .  A
O91         Ni94   1.917       .  S
O91          C96   1.281       .  A
O92         Ni94   1.917       .  S
O92          C95   1.281       .  A
Ni93        Ni94   2.389       .  S
C95        C3176   1.485       .  S
C96        C2973   1.489       .  S
C97        C2833   1.487       .  S
C98        C2805   1.488       .  S
O99        Ni107   1.926       .  S
O99         C109   1.282       .  A
O100       Ni107   1.919       .  S
O100        C110   1.282       .  A
O101       Ni107   1.923       .  S
O101        C111   1.283       .  A
O102       Ni107   1.924       .  S
O102        C112   1.283       .  A
O103       Ni108   1.917       .  S
O103        C112   1.281       .  A
O104       Ni108   1.916       .  S
O104        C111   1.281       .  A
O105       Ni108   1.921       .  S
O105        C110   1.281       .  A
O106       Ni108   1.915       .  S
O106        C109   1.281       .  A
Ni107      Ni108   2.382       .  S
C109       C2777   1.496       .  S
C110       C2924   1.489       .  S
C111       C2749   1.496       .  S
C112       C2840   1.508       .  S
O113       Ni121   1.916       .  S
O113        C123   1.281       .  A
O114       Ni121   1.918       .  S
O114        C124   1.281       .  A
O115       Ni121   1.921       .  S
O115        C125   1.282       .  A
O116       Ni121   1.923       .  S
O116        C126   1.282       .  A
O117       Ni122   1.923       .  S
O117        C126   1.282       .  A
O118       Ni122   1.926       .  S
O118        C125   1.283       .  A
O119       Ni122   1.915       .  S
O119        C124   1.281       .  A
O120       Ni122   1.912       .  S
O120        C123   1.280       .  A
Ni121      Ni122   2.383       .  S
C123       C3120   1.482       .  S
C124       C2700   1.510       .  S
C125       C2721   1.495       .  S
C126       C2672   1.492       .  S
O127       Ni135   1.919       .  S
O127        C137   1.281       .  A
O128       Ni135   1.922       .  S
O128        C138   1.282       .  A
O129       Ni135   1.915       .  S
O129        C139   1.280       .  A
O130       Ni135   1.913       .  S
O130        C140   1.281       .  A
O131       Ni136   1.927       .  S
O131        C140   1.283       .  A
O132       Ni136   1.927       .  S
O132        C139   1.283       .  A
O133       Ni136   1.922       .  S
O133        C138   1.282       .  A
O134       Ni136   1.921       .  S
O134        C137   1.281       .  A
Ni135      Ni136   2.388       .  S
C137       C2609   1.484       .  S
C138       C2728   1.489       .  S
C139       C2588   1.489       .  S
C140       C2637   1.492       .  S
O141       Ni149   1.916       .  S
O141        C151   1.281       .  A
O142       Ni149   1.915       .  S
O142        C152   1.281       .  A
O143       Ni149   1.917       .  S
O143        C153   1.281       .  A
O144       Ni149   1.916       .  S
O144        C154   1.281       .  A
O145       Ni150   1.918       .  S
O145        C154   1.281       .  A
O146       Ni150   1.917       .  S
O146        C153   1.281       .  A
O147       Ni150   1.919       .  S
O147        C152   1.281       .  A
O148       Ni150   1.919       .  S
O148        C151   1.282       .  A
Ni149      Ni150   2.390       .  S
C151       C3253   1.488       .  S
C152       C2693   1.482       .  S
C153       C2525   1.480       .  S
C154       C2560   1.481       .  S
O155       Ni163   1.923       .  S
O155        C165   1.282       .  A
O156       Ni163   1.926       .  S
O156        C166   1.283       .  A
O157       Ni163   1.916       .  S
O157        C167   1.280       .  A
O158       Ni163   1.914       .  S
O158        C168   1.280       .  A
O159       Ni164   1.928       .  S
O159        C168   1.284       .  A
O160       Ni164   1.923       .  S
O160        C167   1.283       .  A
O161       Ni164   1.914       .  S
O161        C166   1.280       .  A
O162       Ni164   1.910       .  S
O162        C165   1.279       .  A
Ni163      Ni164   2.383       .  S
C165       C2497   1.481       .  S
C166       C2644   1.494       .  S
C167       C2469   1.485       .  S
C168       C2553   1.515       .  S
O169       Ni177   1.919       .  S
O169        C179   1.282       .  A
O170       Ni177   1.919       .  S
O170        C180   1.282       .  A
O171       Ni177   1.915       .  S
O171        C181   1.281       .  A
O172       Ni177   1.914       .  S
O172        C182   1.280       .  A
O173       Ni178   1.920       .  S
O173        C182   1.281       .  A
O174       Ni178   1.919       .  S
O174        C181   1.282       .  A
O175       Ni178   1.915       .  S
O175        C180   1.281       .  A
O176       Ni178   1.918       .  S
O176        C179   1.282       .  A
Ni177      Ni178   2.389       .  S
C179       C2448   1.494       .  S
C180       C2385   1.488       .  S
C181       C3064   1.485       .  S
C182       C2420   1.479       .  S
O183       Ni191   1.914       .  S
O183        C193   1.281       .  A
O184       Ni191   1.917       .  S
O184        C194   1.281       .  A
O185       Ni191   1.923       .  S
O185        C195   1.282       .  A
O186       Ni191   1.918       .  S
O186        C196   1.281       .  A
O187       Ni192   1.923       .  S
O187        C196   1.282       .  A
O188       Ni192   1.922       .  S
O188        C195   1.282       .  A
O189       Ni192   1.921       .  S
O189        C194   1.282       .  A
O190       Ni192   1.918       .  S
O190        C193   1.282       .  A
Ni191      Ni192   2.384       .  S
C193       C2301   1.486       .  S
C194       C2364   1.510       .  S
C195       C2329   1.487       .  S
C196       C2441   1.486       .  S
O197       Ni205   1.921       .  S
O197        C207   1.282       .  A
O198       Ni205   1.925       .  S
O198        C208   1.283       .  A
O199       Ni205   1.921       .  S
O199        C209   1.282       .  A
O200       Ni205   1.920       .  S
O200        C210   1.281       .  A
O201       Ni206   1.915       .  S
O201        C210   1.281       .  A
O202       Ni206   1.917       .  S
O202        C209   1.281       .  A
O203       Ni206   1.919       .  S
O203        C208   1.281       .  A
O204       Ni206   1.918       .  S
O204        C207   1.281       .  A
Ni205      Ni206   2.384       .  S
C207       C2273   1.488       .  S
C208       C2245   1.490       .  S
C209       C2413   1.511       .  S
C210       C3085   1.483       .  S
O211       Ni219   1.917       .  S
O211        C221   1.281       .  A
O212       Ni219   1.917       .  S
O212        C222   1.281       .  A
O213       Ni219   1.920       .  S
O213        C223   1.281       .  A
O214       Ni219   1.918       .  S
O214        C224   1.281       .  A
O215       Ni220   1.919       .  S
O215        C224   1.281       .  A
O216       Ni220   1.916       .  S
O216        C223   1.281       .  A
O217       Ni220   1.920       .  S
O217        C222   1.282       .  A
O218       Ni220   1.919       .  S
O218        C221   1.282       .  A
Ni219      Ni220   2.390       .  S
C221       C2189   1.485       .  S
C222       C2280   1.489       .  S
C223       C2217   1.482       .  S
C224       C2357   1.483       .  S
O225       Ni233   1.921       .  S
O225        C235   1.282       .  A
O226       Ni233   1.921       .  S
O226        C236   1.282       .  A
O227       Ni233   1.917       .  S
O227        C237   1.281       .  A
O228       Ni233   1.921       .  S
O228        C238   1.281       .  A
O229       Ni234   1.923       .  S
O229        C238   1.282       .  A
O230       Ni234   1.919       .  S
O230        C237   1.282       .  A
O231       Ni234   1.918       .  S
O231        C236   1.281       .  A
O232       Ni234   1.923       .  S
O232        C235   1.282       .  A
Ni233      Ni234   2.388       .  S
C235       C3197   1.491       .  S
C236       C2133   1.489       .  S
C237       C2161   1.491       .  S
C238       C2112   1.486       .  S
O239       Ni247   1.916       .  S
O239        C249   1.281       .  A
O240       Ni247   1.918       .  S
O240        C250   1.281       .  A
O241       Ni247   1.918       .  S
O241        C251   1.282       .  A
O242       Ni247   1.919       .  S
O242        C252   1.281       .  A
O243       Ni248   1.919       .  S
O243        C252   1.282       .  A
O244       Ni248   1.923       .  S
O244        C251   1.282       .  A
O245       Ni248   1.915       .  S
O245        C250   1.281       .  A
O246       Ni248   1.916       .  S
O246        C249   1.280       .  A
Ni247      Ni248   2.389       .  S
C249       C2028   1.478       .  S
C250       C2084   1.486       .  S
C251       C2056   1.491       .  S
C252       C2168   1.487       .  S
O253       Ni261   1.917       .  S
O253        C263   1.281       .  A
O254       Ni261   1.917       .  S
O254        C264   1.281       .  A
O255       Ni261   1.919       .  S
O255        C265   1.282       .  A
O256       Ni261   1.918       .  S
O256        C266   1.281       .  A
O257       Ni262   1.920       .  S
O257        C266   1.282       .  A
O258       Ni262   1.923       .  S
O258        C265   1.282       .  A
O259       Ni262   1.912       .  S
O259        C264   1.280       .  A
O260       Ni262   1.912       .  S
O260        C263   1.280       .  A
Ni261      Ni262   2.389       .  S
C263       C1937   1.480       .  S
C264       C2000   1.479       .  S
C265       C1965   1.492       .  S
C266       C2077   1.490       .  S
O267       Ni275   1.914       .  S
O267        C277   1.281       .  A
O268       Ni275   1.912       .  S
O268        C278   1.280       .  A
O269       Ni275   1.921       .  S
O269        C279   1.281       .  A
O270       Ni275   1.918       .  S
O270        C280   1.282       .  A
O271       Ni276   1.920       .  S
O271        C280   1.282       .  A
O272       Ni276   1.918       .  S
O272        C279   1.281       .  A
O273       Ni276   1.920       .  S
O273        C278   1.282       .  A
O274       Ni276   1.913       .  S
O274        C277   1.281       .  A
Ni275      Ni276   2.382       .  S
C277       C1993   1.482       .  S
C278       C1916   1.512       .  S
C279       C3036   1.487       .  S
C280       C2140   1.499       .  S
O281       Ni289   1.918       .  S
O281        C291   1.281       .  A
O282       Ni289   1.915       .  S
O282        C292   1.281       .  A
O283       Ni289   1.917       .  S
O283        C293   1.282       .  A
O284       Ni289   1.918       .  S
O284        C294   1.281       .  A
O285       Ni290   1.916       .  S
O285        C294   1.280       .  A
O286       Ni290   1.920       .  S
O286        C293   1.282       .  A
O287       Ni290   1.922       .  S
O287        C292   1.282       .  A
O288       Ni290   1.915       .  S
O288        C291   1.281       .  A
Ni289      Ni290   2.383       .  S
C291       C2784   1.485       .  S
C292       C1881   1.512       .  S
C293       C1860   1.494       .  S
C294       C2021   1.480       .  S
O295       Ni303   1.915       .  S
O295        C305   1.281       .  A
O296       Ni303   1.914       .  S
O296        C306   1.280       .  A
O297       Ni303   1.921       .  S
O297        C307   1.282       .  A
O298       Ni303   1.917       .  S
O298        C308   1.281       .  A
O299       Ni304   1.917       .  S
O299        C308   1.280       .  A
O300       Ni304   1.916       .  S
O300        C307   1.281       .  A
O301       Ni304   1.920       .  S
O301        C306   1.282       .  A
O302       Ni304   1.923       .  S
O302        C305   1.283       .  A
Ni303      Ni304   2.390       .  S
C305       C1832   1.490       .  S
C306       C2504   1.483       .  S
C307       C2868   1.484       .  S
C308       C1888   1.480       .  S
O309       Ni317   1.921       .  S
O309        C319   1.282       .  A
O310       Ni317   1.922       .  S
O310        C320   1.282       .  A
O311       Ni317   1.922       .  S
O311        C321   1.282       .  A
O312       Ni317   1.920       .  S
O312        C322   1.281       .  A
O313       Ni318   1.914       .  S
O313        C322   1.280       .  A
O314       Ni318   1.915       .  S
O314        C321   1.280       .  A
O315       Ni318   1.921       .  S
O315        C320   1.282       .  A
O316       Ni318   1.921       .  S
O316        C319   1.282       .  A
Ni317      Ni318   2.389       .  S
C319       C2581   1.493       .  S
C320       C1825   1.490       .  S
C321       C2224   1.485       .  S
C322       C1797   1.479       .  S
O323       Ni331   1.918       .  S
O323        C333   1.282       .  A
O324       Ni331   1.924       .  S
O324        C334   1.282       .  A
O325       Ni331   1.917       .  S
O325        C335   1.281       .  A
O326       Ni331   1.917       .  S
O326        C336   1.281       .  A
O327       Ni332   1.916       .  S
O327        C336   1.281       .  A
O328       Ni332   1.919       .  S
O328        C335   1.282       .  A
O329       Ni332   1.921       .  S
O329        C334   1.282       .  A
O330       Ni332   1.924       .  S
O330        C333   1.282       .  A
Ni331      Ni332   2.381       .  S
C333       C1853   1.495       .  S
C334       C1972   1.496       .  S
C335       C1804   1.512       .  S
C336       C2308   1.488       .  S
O337       Ni345   1.926       .  S
O337        C347   1.283       .  A
O338       Ni345   1.926       .  S
O338        C348   1.283       .  A
O339       Ni345   1.921       .  S
O339        C349   1.281       .  A
O340       Ni345   1.918       .  S
O340        C350   1.281       .  A
O341       Ni346   1.915       .  S
O341        C350   1.281       .  A
O342       Ni346   1.915       .  S
O342        C349   1.280       .  A
O343       Ni346   1.915       .  S
O343        C348   1.281       .  A
O344       Ni346   1.918       .  S
O344        C347   1.281       .  A
Ni345      Ni346   2.389       .  S
C347       C1713   1.491       .  S
C348       C1748   1.493       .  S
C349       C1769   1.481       .  S
C350       C2532   1.484       .  S
O351       Ni359   1.922       .  S
O351        C361   1.282       .  A
O352       Ni359   1.924       .  S
O352        C362   1.282       .  A
O353       Ni359   1.928       .  S
O353        C363   1.283       .  A
O354       Ni359   1.923       .  S
O354        C364   1.283       .  A
O355       Ni360   1.918       .  S
O355        C364   1.281       .  A
O356       Ni360   1.921       .  S
O356        C363   1.282       .  A
O357       Ni360   1.920       .  S
O357        C362   1.283       .  A
O358       Ni360   1.923       .  S
O358        C361   1.282       .  A
Ni359      Ni360   2.382       .  S
C361       C1657   1.489       .  S
C362       C1685   1.501       .  S
C363       C2476   1.492       .  S
C364       C1776   1.507       .  S
O365       Ni373   1.919       .  S
O365        C375   1.282       .  A
O366       Ni373   1.920       .  S
O366        C376   1.281       .  A
O367       Ni373   1.916       .  S
O367        C377   1.281       .  A
O368       Ni373   1.919       .  S
O368        C378   1.282       .  A
O369       Ni374   1.922       .  S
O369        C378   1.282       .  A
O370       Ni374   1.926       .  S
O370        C377   1.283       .  A
O371       Ni374   1.918       .  S
O371        C376   1.281       .  A
O372       Ni374   1.917       .  S
O372        C375   1.281       .  A
Ni373      Ni374   2.388       .  S
C375       C1601   1.493       .  S
C376       C1692   1.483       .  S
C377       C2049   1.488       .  S
C378       C1636   1.489       .  S
O379       Ni387   1.918       .  S
O379        C389   1.281       .  A
O380       Ni387   1.921       .  S
O380        C390   1.282       .  A
O381       Ni387   1.923       .  S
O381        C391   1.282       .  A
O382       Ni387   1.920       .  S
O382        C392   1.282       .  A
O383       Ni388   1.918       .  S
O383        C392   1.281       .  A
O384       Ni388   1.922       .  S
O384        C391   1.282       .  A
O385       Ni388   1.919       .  S
O385        C390   1.282       .  A
O386       Ni388   1.919       .  S
O386        C389   1.282       .  A
Ni387      Ni388   2.389       .  S
C389       C1573   1.487       .  S
C390       C1741   1.488       .  S
C391       C2105   1.487       .  S
C392       C1629   1.488       .  S
O393       Ni401   1.918       .  S
O393        C403   1.282       .  A
O394       Ni401   1.916       .  S
O394        C404   1.281       .  A
O395       Ni401   1.924       .  S
O395        C405   1.282       .  A
O396       Ni401   1.926       .  S
O396        C406   1.283       .  A
O397       Ni402   1.925       .  S
O397        C406   1.283       .  A
O398       Ni402   1.927       .  S
O398        C405   1.283       .  A
O399       Ni402   1.916       .  S
O399        C404   1.280       .  A
O400       Ni402   1.915       .  S
O400        C403   1.281       .  A
Ni401      Ni402   2.384       .  S
C403       C1517   1.506       .  S
C404       C1489   1.480       .  S
C405       C2252   1.492       .  S
C406       C1552   1.498       .  S
O407       Ni415   1.919       .  S
O407        C417   1.282       .  A
O408       Ni415   1.915       .  S
O408        C418   1.281       .  A
O409       Ni415   1.921       .  S
O409        C419   1.282       .  A
O410       Ni415   1.923       .  S
O410        C420   1.282       .  A
O411       Ni416   1.919       .  S
O411        C420   1.282       .  A
O412       Ni416   1.916       .  S
O412        C419   1.281       .  A
O413       Ni416   1.916       .  S
O413        C418   1.281       .  A
O414       Ni416   1.916       .  S
O414        C417   1.281       .  A
Ni415      Ni416   2.389       .  S
C417       C1461   1.488       .  S
C418       C1433   1.482       .  S
C419       C2196   1.483       .  S
C420       C1545   1.490       .  S
O421       Ni429   1.916       .  S
O421        C431   1.280       .  A
O422       Ni429   1.917       .  S
O422        C432   1.281       .  A
O423       Ni429   1.926       .  S
O423        C433   1.283       .  A
O424       Ni429   1.920       .  S
O424        C434   1.282       .  A
O425       Ni430   1.917       .  S
O425        C434   1.281       .  A
O426       Ni430   1.920       .  S
O426        C433   1.281       .  A
O427       Ni430   1.915       .  S
O427        C432   1.281       .  A
O428       Ni430   1.914       .  S
O428        C431   1.280       .  A
Ni429      Ni430   2.384       .  S
C431       C1524   1.481       .  S
C432       C1384   1.487       .  S
C433       C1405   1.518       .  S
C434       C2952   1.483       .  S
O435       Ni443   1.920       .  S
O435        C445   1.282       .  A
O436       Ni443   1.923       .  S
O436        C446   1.282       .  A
O437       Ni443   1.916       .  S
O437        C447   1.281       .  A
O438       Ni443   1.922       .  S
O438        C448   1.281       .  A
O439       Ni444   1.920       .  S
O439        C448   1.281       .  A
O440       Ni444   1.917       .  S
O440        C447   1.281       .  A
O441       Ni444   1.917       .  S
O441        C446   1.282       .  A
O442       Ni444   1.916       .  S
O442        C445   1.281       .  A
Ni443      Ni444   2.389       .  S
C445       C1468   1.487       .  S
C446       C1349   1.492       .  S
C447       C2896   1.480       .  S
C448       C1412   1.484       .  S
O449       Ni457   1.916       .  S
O449        C459   1.281       .  A
O450       Ni457   1.923       .  S
O450        C460   1.281       .  A
O451       Ni457   1.914       .  S
O451        C461   1.281       .  A
O452       Ni457   1.918       .  S
O452        C462   1.282       .  A
O453       Ni458   1.917       .  S
O453        C462   1.282       .  A
O454       Ni458   1.919       .  S
O454        C461   1.282       .  A
O455       Ni458   1.912       .  S
O455        C460   1.279       .  A
O456       Ni458   1.919       .  S
O456        C459   1.281       .  A
Ni457      Ni458   2.381       .  S
C459       C1300   1.488       .  S
C460       C1272   1.479       .  S
C461       C1909   1.504       .  S
C462       C1321   1.510       .  S
O463       Ni471   1.920       .  S
O463        C473   1.281       .  A
O464       Ni471   1.923       .  S
O464        C474   1.282       .  A
O465       Ni471   1.919       .  S
O465        C475   1.282       .  A
O466       Ni471   1.918       .  S
O466        C476   1.281       .  A
O467       Ni472   1.919       .  S
O467        C476   1.282       .  A
O468       Ni472   1.922       .  S
O468        C475   1.282       .  A
O469       Ni472   1.912       .  S
O469        C474   1.279       .  A
O470       Ni472   1.915       .  S
O470        C473   1.280       .  A
Ni471      Ni472   2.385       .  S
C473       C1328   1.482       .  S
C474       C1944   1.479       .  S
C475       C1237   1.512       .  S
C476       C1209   1.487       .  S
O477       Ni485   1.924       .  S
O477        C487   1.282       .  A
O478       Ni485   1.923       .  S
O478        C488   1.283       .  A
O479       Ni485   1.916       .  S
O479        C489   1.280       .  A
O480       Ni485   1.917       .  S
O480        C490   1.281       .  A
O481       Ni486   1.922       .  S
O481        C490   1.283       .  A
O482       Ni486   1.922       .  S
O482        C489   1.282       .  A
O483       Ni486   1.913       .  S
O483        C488   1.280       .  A
O484       Ni486   1.910       .  S
O484        C487   1.279       .  A
Ni485      Ni486   2.390       .  S
C487       C1160   1.482       .  S
C488       C1244   1.485       .  S
C489       C2616   1.485       .  S
C490       C1181   1.487       .  S
O491       Ni499   1.921       .  S
O491        C501   1.282       .  A
O492       Ni499   1.921       .  S
O492        C502   1.282       .  A
O493       Ni499   1.920       .  S
O493        C503   1.282       .  A
O494       Ni499   1.919       .  S
O494        C504   1.281       .  A
O495       Ni500   1.922       .  S
O495        C504   1.282       .  A
O496       Ni500   1.919       .  S
O496        C503   1.282       .  A
O497       Ni500   1.917       .  S
O497        C502   1.281       .  A
O498       Ni500   1.919       .  S
O498        C501   1.282       .  A
Ni499      Ni500   2.388       .  S
C501       C1132   1.494       .  S
C502       C1293   1.486       .  S
C503       C1188   1.490       .  S
C504       C2665   1.485       .  S
O505       Ni513   1.920       .  S
O505        C515   1.282       .  A
O506       Ni513   1.923       .  S
O506        C516   1.282       .  A
O507       Ni513   1.919       .  S
O507        C517   1.281       .  A
O508       Ni513   1.921       .  S
O508        C518   1.281       .  A
O509       Ni514   1.919       .  S
O509        C518   1.281       .  A
O510       Ni514   1.919       .  S
O510        C517   1.282       .  A
O511       Ni514   1.916       .  S
O511        C516   1.281       .  A
O512       Ni514   1.915       .  S
O512        C515   1.281       .  A
Ni513      Ni514   2.383       .  S
C515       C1076   1.493       .  S
C516       C1041   1.490       .  S
C517       C1097   1.512       .  S
C518       C2812   1.484       .  S
O519       Ni527   1.918       .  S
O519        C529   1.282       .  A
O520       Ni527   1.918       .  S
O520        C530   1.281       .  A
O521       Ni527   1.919       .  S
O521        C531   1.281       .  A
O522       Ni527   1.916       .  S
O522        C532   1.280       .  A
O523       Ni528   1.920       .  S
O523        C532   1.281       .  A
O524       Ni528   1.920       .  S
O524        C531   1.281       .  A
O525       Ni528   1.913       .  S
O525        C530   1.280       .  A
O526       Ni528   1.912       .  S
O526        C529   1.281       .  A
Ni527      Ni528   2.390       .  S
C529       C2756   1.486       .  S
C530       C1104   1.481       .  S
C531       C1013   1.485       .  S
C532        C985   1.481       .  S
O533       Ni541   1.917       .  S
O533        C543   1.281       .  A
O534       Ni541   1.919       .  S
O534        C544   1.280       .  A
O535       Ni541   1.923       .  S
O535        C545   1.283       .  A
O536       Ni541   1.931       .  S
O536        C546   1.285       .  A
O537       Ni542   1.915       .  S
O537        C546   1.281       .  A
O538       Ni542   1.918       .  S
O538        C545   1.281       .  A
O539       Ni542   1.927       .  S
O539        C544   1.283       .  A
O540       Ni542   1.922       .  S
O540        C543   1.283       .  A
Ni541      Ni542   2.383       .  S
C543        C957   1.503       .  S
C544       C2336   1.485       .  S
C545        C929   1.489       .  S
C546       C1020   1.509       .  S
O547       Ni555   1.917       .  S
O547        C557   1.282       .  A
O548       Ni555   1.920       .  S
O548        C558   1.281       .  A
O549       Ni555   1.914       .  S
O549        C559   1.280       .  A
O550       Ni555   1.915       .  S
O550        C560   1.280       .  A
O551       Ni556   1.921       .  S
O551        C560   1.282       .  A
O552       Ni556   1.923       .  S
O552        C559   1.282       .  A
O553       Ni556   1.918       .  S
O553        C558   1.281       .  A
O554       Ni556   1.917       .  S
O554        C557   1.281       .  A
Ni555      Ni556   2.390       .  S
C557       C2392   1.486       .  S
C558        C964   1.483       .  S
C559       C1069   1.483       .  S
C560        C901   1.482       .  S
O561       Ni569   1.916       .  S
O561        C571   1.281       .  A
O562       Ni569   1.919       .  S
O562        C572   1.282       .  A
O563       Ni569   1.925       .  S
O563        C573   1.283       .  A
O564       Ni569   1.922       .  S
O564        C574   1.281       .  A
O565       Ni570   1.922       .  S
O565        C574   1.281       .  A
O566       Ni570   1.916       .  S
O566        C573   1.281       .  A
O567       Ni570   1.918       .  S
O567        C572   1.281       .  A
O568       Ni570   1.918       .  S
O568        C571   1.282       .  A
Ni569      Ni570   2.383       .  S
C571       C1377   1.491       .  S
C572        C852   1.512       .  S
C573        C873   1.489       .  S
C574       C1720   1.487       .  S
O575       Ni583   1.916       .  S
O575        C585   1.281       .  A
O576       Ni583   1.917       .  S
O576        C586   1.281       .  A
O577       Ni583   1.919       .  S
O577        C587   1.282       .  A
O578       Ni583   1.920       .  S
O578        C588   1.282       .  A
O579       Ni584   1.912       .  S
O579        C588   1.280       .  A
O580       Ni584   1.915       .  S
O580        C587   1.281       .  A
O581       Ni584   1.919       .  S
O581        C586   1.282       .  A
O582       Ni584   1.920       .  S
O582        C585   1.282       .  A
Ni583      Ni584   2.388       .  S
C585       C1580   1.486       .  S
C586        C880   1.491       .  S
C587       C1048   1.488       .  S
C588        C824   1.483       .  S
O589       Ni597   1.919       .  S
O589        C599   1.281       .  A
O590       Ni597   1.918       .  S
O590        C600   1.282       .  A
O591       Ni597   1.914       .  S
O591        C601   1.280       .  A
O592       Ni597   1.921       .  S
O592        C602   1.282       .  A
O593       Ni598   1.919       .  S
O593        C602   1.282       .  A
O594       Ni598   1.920       .  S
O594        C601   1.281       .  A
O595       Ni598   1.919       .  S
O595        C600   1.282       .  A
O596       Ni598   1.920       .  S
O596        C599   1.282       .  A
Ni597      Ni598   2.383       .  S
C599        C908   1.487       .  S
C600        C817   1.496       .  S
C601       C1265   1.481       .  S
C602        C789   1.513       .  S
O603       Ni611   1.917       .  S
O603        C613   1.281       .  A
O604       Ni611   1.916       .  S
O604        C614   1.281       .  A
O605       Ni611   1.917       .  S
O605        C615   1.281       .  A
O606       Ni611   1.916       .  S
O606        C616   1.281       .  A
O607       Ni612   1.924       .  S
O607        C616   1.283       .  A
O608       Ni612   1.925       .  S
O608        C615   1.283       .  A
O609       Ni612   1.917       .  S
O609        C614   1.281       .  A
O610       Ni612   1.915       .  S
O610        C613   1.280       .  A
Ni611      Ni612   2.390       .  S
C613       C1496   1.480       .  S
C614        C845   1.480       .  S
C615       C1125   1.491       .  S
C616        C796   1.486       .  S
O617       Ni625   1.916       .  S
O617        C627   1.281       .  A
O618       Ni625   1.918       .  S
O618        C628   1.282       .  A
O619       Ni625   1.925       .  S
O619        C629   1.282       .  A
O620       Ni625   1.918       .  S
O620        C630   1.281       .  A
O621       Ni626   1.921       .  S
O621        C630   1.281       .  A
O622       Ni626   1.917       .  S
O622        C629   1.280       .  A
O623       Ni626   1.918       .  S
O623        C628   1.282       .  A
O624       Ni626   1.922       .  S
O624        C627   1.283       .  A
Ni625      Ni626   2.385       .  S
C627       C1608   1.496       .  S
C628        C740   1.506       .  S
C629        C992   1.481       .  S
C630        C761   1.483       .  S
O631       Ni639   1.918       .  S
O631        C641   1.281       .  A
O632       Ni639   1.919       .  S
O632        C642   1.281       .  A
O633       Ni639   1.918       .  S
O633        C643   1.281       .  A
O634       Ni639   1.919       .  S
O634        C644   1.281       .  A
O635       Ni640   1.915       .  S
O635        C644   1.280       .  A
O636       Ni640   1.915       .  S
O636        C643   1.281       .  A
O637       Ni640   1.918       .  S
O637        C642   1.282       .  A
O638       Ni640   1.920       .  S
O638        C641   1.282       .  A
Ni639      Ni640   2.390       .  S
C641        C936   1.487       .  S
C642        C768   1.487       .  S
C643       C1216   1.484       .  S
C644        C712   1.479       .  S
O645       Ni653   1.920       .  S
O645        C655   1.281       .  A
O646       Ni653   1.918       .  S
O646        C656   1.282       .  A
O647       Ni653   1.913       .  S
O647        C657   1.280       .  A
O648       Ni653   1.915       .  S
O648        C658   1.281       .  A
O649       Ni654   1.921       .  S
O649        C658   1.282       .  A
O650       Ni654   1.918       .  S
O650        C657   1.281       .  A
O651       Ni654   1.919       .  S
O651        C656   1.281       .  A
O652       Ni654   1.914       .  S
O652        C655   1.281       .  A
Ni653      Ni654   2.384       .  S
C655       C1440   1.485       .  S
C656        C677   1.488       .  S
C657       C1153   1.482       .  S
C658        C705   1.512       .  S
O659       Ni667   1.921       .  S
O659        C669   1.281       .  A
O660       Ni667   1.922       .  S
O660        C670   1.282       .  A
O661       Ni667   1.921       .  S
O661        C671   1.282       .  A
O662       Ni667   1.920       .  S
O662        C672   1.282       .  A
O663       Ni668   1.921       .  S
O663        C672   1.282       .  A
O664       Ni668   1.919       .  S
O664        C671   1.282       .  A
O665       Ni668   1.915       .  S
O665        C670   1.281       .  A
O666       Ni668   1.916       .  S
O666        C669   1.280       .  A
Ni667      Ni668   2.388       .  S
C669        C733   1.479       .  S
C670       C1664   1.484       .  S
C671       C1356   1.494       .  S
C672        C684   1.494       .  S
C673        C674   1.411       .  A
C673        C678   1.412       .  A
C673        C691   1.451       .  S
C674        C679   1.498       .  S
C674        C675   1.410       .  A
C675        C676   1.411       .  A
C675        C680   1.450       .  S
C676        C677   1.416       .  A
C676        C692   1.452       .  S
C677        C678   1.415       .  A
C678        C681   1.451       .  S
C679        C682   1.410       .  A
C679        C686   1.410       .  A
C680        N697   1.157       .  T
C681        N699   1.157       .  T
C682        C683   1.413       .  A
C682        C687   1.451       .  S
C683        C684   1.418       .  A
C683        C689   1.451       .  S
C684        C685   1.418       .  A
C685        C686   1.412       .  A
C685        C688   1.451       .  S
C686        C690   1.451       .  S
C687        N694   1.157       .  T
C688        N695   1.157       .  T
C689        N693   1.158       .  T
C690        N696   1.157       .  T
C691        N700   1.157       .  T
C692        N698   1.157       .  T
C701        C702   1.407       .  A
C701        C706   1.413       .  A
C701        C719   1.452       .  S
C702        C707   1.498       .  S
C702        C703   1.406       .  A
C703        C704   1.412       .  A
C703        C708   1.453       .  S
C704        C705   1.429       .  A
C704        C720   1.452       .  S
C705        C706   1.427       .  A
C706        C709   1.452       .  S
C707        C710   1.412       .  A
C707        C714   1.412       .  A
C708        N725   1.157       .  T
C709        N727   1.158       .  T
C710        C711   1.410       .  A
C710        C715   1.451       .  S
C711        C712   1.412       .  A
C711        C717   1.451       .  S
C712        C713   1.412       .  A
C713        C714   1.411       .  A
C713        C716   1.451       .  S
C714        C718   1.450       .  S
C715        N722   1.157       .  T
C716        N723   1.157       .  T
C717        N721   1.157       .  T
C718        N724   1.157       .  T
C719        N728   1.157       .  T
C720        N726   1.158       .  T
C729        C730   1.412       .  A
C729        C734   1.411       .  A
C729        C747   1.450       .  S
C730        C735   1.496       .  S
C730        C731   1.411       .  A
C731        C732   1.410       .  A
C731        C736   1.450       .  S
C732        C733   1.412       .  A
C732        C748   1.451       .  S
C733        C734   1.411       .  A
C734        C737   1.451       .  S
C735        C738   1.407       .  A
C735        C742   1.407       .  A
C736        N753   1.157       .  T
C737        N755   1.157       .  T
C738        C739   1.411       .  A
C738        C743   1.452       .  S
C739        C740   1.425       .  A
C739        C745   1.452       .  S
C740        C741   1.425       .  A
C741        C742   1.412       .  A
C741        C744   1.451       .  S
C742        C746   1.452       .  S
C743        N750   1.157       .  T
C744        N751   1.158       .  T
C745        N749   1.157       .  T
C746        N752   1.157       .  T
C747        N756   1.157       .  T
C748        N754   1.157       .  T
C757        C758   1.413       .  A
C757        C762   1.411       .  A
C757        C775   1.451       .  S
C758        C763   1.500       .  S
C758        C759   1.413       .  A
C759        C760   1.411       .  A
C759        C764   1.451       .  S
C760        C761   1.413       .  A
C760        C776   1.451       .  S
C761        C762   1.412       .  A
C762        C765   1.449       .  S
C763        C766   1.413       .  A
C763        C770   1.412       .  A
C764        N781   1.157       .  T
C765        N783   1.156       .  T
C766        C767   1.411       .  A
C766        C771   1.451       .  S
C767        C768   1.415       .  A
C767        C773   1.451       .  S
C768        C769   1.414       .  A
C769        C770   1.411       .  A
C769        C772   1.451       .  S
C770        C774   1.450       .  S
C771        N778   1.157       .  T
C772        N779   1.157       .  T
C773        N777   1.158       .  T
C774        N780   1.158       .  T
C775        N784   1.157       .  T
C776        N782   1.157       .  T
C785        C786   1.408       .  A
C785        C790   1.413       .  A
C785        C803   1.453       .  S
C786        C791   1.502       .  S
C786        C787   1.408       .  A
C787        C788   1.414       .  A
C787        C792   1.452       .  S
C788        C789   1.427       .  A
C788        C804   1.451       .  S
C789        C790   1.427       .  A
C790        C793   1.451       .  S
C791        C794   1.413       .  A
C791        C798   1.412       .  A
C792        N809   1.157       .  T
C793        N811   1.158       .  T
C794        C795   1.411       .  A
C794        C799   1.451       .  S
C795        C796   1.413       .  A
C795        C801   1.451       .  S
C796        C797   1.415       .  A
C797        C798   1.412       .  A
C797        C800   1.451       .  S
C798        C802   1.451       .  S
C799        N806   1.157       .  T
C800        N807   1.157       .  T
C801        N805   1.157       .  T
C802        N808   1.157       .  T
C803        N812   1.157       .  T
C804        N810   1.158       .  T
C813        C814   1.407       .  A
C813        C818   1.410       .  A
C813        C831   1.452       .  S
C814        C819   1.495       .  S
C814        C815   1.409       .  A
C815        C816   1.413       .  A
C815        C820   1.451       .  S
C816        C817   1.420       .  A
C816        C832   1.451       .  S
C817        C818   1.419       .  A
C818        C821   1.450       .  S
C819        C822   1.410       .  A
C819        C826   1.410       .  A
C820        N837   1.157       .  T
C821        N839   1.157       .  T
C822        C823   1.411       .  A
C822        C827   1.450       .  S
C823        C824   1.414       .  A
C823        C829   1.451       .  S
C824        C825   1.414       .  A
C825        C826   1.410       .  A
C825        C828   1.451       .  S
C826        C830   1.450       .  S
C827        N834   1.157       .  T
C828        N835   1.157       .  T
C829        N833   1.157       .  T
C830        N836   1.157       .  T
C831        N840   1.157       .  T
C832        N838   1.158       .  T
C841        C842   1.412       .  A
C841        C846   1.411       .  A
C841        C859   1.450       .  S
C842        C847   1.498       .  S
C842        C843   1.412       .  A
C843        C844   1.410       .  A
C843        C848   1.451       .  S
C844        C845   1.413       .  A
C844        C860   1.451       .  S
C845        C846   1.412       .  A
C846        C849   1.451       .  S
C847        C850   1.407       .  A
C847        C854   1.407       .  A
C848        N865   1.157       .  T
C849        N867   1.157       .  T
C850        C851   1.413       .  A
C850        C855   1.452       .  S
C851        C852   1.428       .  A
C851        C857   1.452       .  S
C852        C853   1.428       .  A
C853        C854   1.412       .  A
C853        C856   1.451       .  S
C854        C858   1.453       .  S
C855        N862   1.158       .  T
C856        N863   1.158       .  T
C857        N861   1.157       .  T
C858        N864   1.157       .  T
C859        N868   1.157       .  T
C860        N866   1.157       .  T
C869        C870   1.411       .  A
C869        C874   1.412       .  A
C869        C887   1.451       .  S
C870        C875   1.498       .  S
C870        C871   1.410       .  A
C871        C872   1.411       .  A
C871        C876   1.451       .  S
C872        C873   1.416       .  A
C872        C888   1.451       .  S
C873        C874   1.415       .  A
C874        C877   1.450       .  S
C875        C878   1.410       .  A
C875        C882   1.410       .  A
C876        N893   1.157       .  T
C877        N895   1.157       .  T
C878        C879   1.411       .  A
C878        C883   1.451       .  S
C879        C880   1.417       .  A
C879        C885   1.451       .  S
C880        C881   1.417       .  A
C881        C882   1.412       .  A
C881        C884   1.451       .  S
C882        C886   1.451       .  S
C883        N890   1.157       .  T
C884        N891   1.157       .  T
C885        N889   1.157       .  T
C886        N892   1.157       .  T
C887        N896   1.157       .  T
C888        N894   1.157       .  T
C897        C898   1.411       .  A
C897        C902   1.412       .  A
C897        C915   1.450       .  S
C898        C903   1.497       .  S
C898        C899   1.411       .  A
C899        C900   1.410       .  A
C899        C904   1.450       .  S
C900        C901   1.413       .  A
C900        C916   1.451       .  S
C901        C902   1.414       .  A
C902        C905   1.451       .  S
C903        C906   1.410       .  A
C903        C910   1.410       .  A
C904        N921   1.157       .  T
C905        N923   1.158       .  T
C906        C907   1.412       .  A
C906        C911   1.451       .  S
C907        C908   1.415       .  A
C907        C913   1.451       .  S
C908        C909   1.414       .  A
C909        C910   1.411       .  A
C909        C912   1.450       .  S
C910        C914   1.450       .  S
C911        N918   1.157       .  T
C912        N919   1.157       .  T
C913        N917   1.157       .  T
C914        N920   1.157       .  T
C915        N924   1.157       .  T
C916        N922   1.157       .  T
C925        C926   1.410       .  A
C925        C930   1.412       .  A
C925        C943   1.450       .  S
C926        C931   1.498       .  S
C926        C927   1.411       .  A
C927        C928   1.412       .  A
C927        C932   1.451       .  S
C928        C929   1.415       .  A
C928        C944   1.451       .  S
C929        C930   1.416       .  A
C930        C933   1.451       .  S
C931        C934   1.410       .  A
C931        C938   1.411       .  A
C932        N949   1.157       .  T
C933        N951   1.158       .  T
C934        C935   1.412       .  A
C934        C939   1.450       .  S
C935        C936   1.416       .  A
C935        C941   1.451       .  S
C936        C937   1.414       .  A
C937        C938   1.412       .  A
C937        C940   1.451       .  S
C938        C942   1.450       .  S
C939        N946   1.157       .  T
C940        N947   1.157       .  T
C941        N945   1.158       .  T
C942        N948   1.157       .  T
C943        N952   1.157       .  T
C944        N950   1.157       .  T
C953        C954   1.407       .  A
C953        C958   1.411       .  A
C953        C971   1.452       .  S
C954        C959   1.497   1_556  S
C954        C955   1.408       .  A
C955        C956   1.413       .  A
C955        C960   1.451       .  S
C956        C957   1.422       .  A
C956        C972   1.452       .  S
C957        C958   1.423       .  A
C958        C961   1.449       .  S
C959        C962   1.411       .  A
C959        C966   1.411       .  A
C960        N977   1.158       .  T
C961        N979   1.157       .  T
C962        C963   1.411       .  A
C962        C967   1.450       .  S
C963        C964   1.414       .  A
C963        C969   1.451       .  S
C964        C965   1.413       .  A
C965        C966   1.411       .  A
C965        C968   1.451       .  S
C966        C970   1.451       .  S
C967        N974   1.158       .  T
C968        N975   1.158       .  T
C969        N973   1.157       .  T
C970        N976   1.157       .  T
C971        N980   1.157   1_556  T
C972        N978   1.157       .  T
C981        C982   1.413       .  A
C981        C986   1.410       .  A
C981        C999   1.451       .  S
C982        C987   1.498       .  S
C982        C983   1.412       .  A
C983        C984   1.411       .  A
C983        C988   1.450       .  S
C984        C985   1.414       .  A
C984       C1000   1.451       .  S
C985        C986   1.411       .  A
C986        C989   1.451       .  S
C987        C990   1.412       .  A
C987        C994   1.412       .  A
C988       N1005   1.157       .  T
C989       N1007   1.157       .  T
C990        C991   1.412       .  A
C990        C995   1.450       .  S
C991        C992   1.413       .  A
C991        C997   1.451       .  S
C992        C993   1.410       .  A
C993        C994   1.410       .  A
C993        C996   1.448       .  S
C994        C998   1.451       .  S
C995       N1002   1.157       .  T
C996       N1003   1.156       .  T
C997       N1001   1.157       .  T
C998       N1004   1.157       .  T
C999       N1008   1.157       .  T
C1000      N1006   1.157       .  T
C1009      C1010   1.412       .  A
C1009      C1014   1.412       .  A
C1009      C1027   1.450       .  S
C1010      C1015   1.500   1_455  S
C1010      C1011   1.411       .  A
C1011      C1012   1.411       .  A
C1011      C1016   1.450       .  S
C1012      C1013   1.414       .  A
C1012      C1028   1.452       .  S
C1013      C1014   1.413       .  A
C1014      C1017   1.451       .  S
C1015      C1018   1.407       .  A
C1015      C1022   1.408       .  A
C1016      N1033   1.157       .  T
C1017      N1035   1.158       .  T
C1018      C1019   1.413       .  A
C1018      C1023   1.452       .  S
C1019      C1020   1.426       .  A
C1019      C1025   1.452       .  S
C1020      C1021   1.424       .  A
C1021      C1022   1.415       .  A
C1021      C1024   1.449       .  S
C1022      C1026   1.452       .  S
C1023      N1030   1.157       .  T
C1024      N1031   1.157       .  T
C1025      N1029   1.157       .  T
C1026      N1032   1.157   1_655  T
C1027      N1036   1.157       .  T
C1028      N1034   1.157       .  T
C1037      C1038   1.410       .  A
C1037      C1042   1.412       .  A
C1037      C1055   1.451       .  S
C1038      C1043   1.496       .  S
C1038      C1039   1.409       .  A
C1039      C1040   1.411       .  A
C1039      C1044   1.451       .  S
C1040      C1041   1.417       .  A
C1040      C1056   1.451       .  S
C1041      C1042   1.416       .  A
C1042      C1045   1.450       .  S
C1043      C1046   1.410       .  A
C1043      C1050   1.410       .  A
C1044      N1061   1.157       .  T
C1045      N1063   1.157       .  T
C1046      C1047   1.410       .  A
C1046      C1051   1.451       .  S
C1047      C1048   1.416       .  A
C1047      C1053   1.451       .  S
C1048      C1049   1.416       .  A
C1049      C1050   1.412       .  A
C1049      C1052   1.451       .  S
C1050      C1054   1.450       .  S
C1051      N1058   1.157       .  T
C1052      N1059   1.157       .  T
C1053      N1057   1.157       .  T
C1054      N1060   1.157       .  T
C1055      N1064   1.157       .  T
C1056      N1062   1.158       .  T
C1065      C1066   1.412       .  A
C1065      C1070   1.411       .  A
C1065      C1083   1.451       .  S
C1066      C1071   1.497   1_655  S
C1066      C1067   1.411       .  A
C1067      C1068   1.411       .  A
C1067      C1072   1.450       .  S
C1068      C1069   1.414       .  A
C1068      C1084   1.452       .  S
C1069      C1070   1.412       .  A
C1070      C1073   1.451       .  S
C1071      C1074   1.410       .  A
C1071      C1078   1.409       .  A
C1072      N1089   1.157       .  T
C1073      N1091   1.157       .  T
C1074      C1075   1.412       .  A
C1074      C1079   1.451       .  S
C1075      C1076   1.418       .  A
C1075      C1081   1.451       .  S
C1076      C1077   1.418       .  A
C1077      C1078   1.411       .  A
C1077      C1080   1.450       .  S
C1078      C1082   1.451       .  S
C1079      N1086   1.157       .  T
C1080      N1087   1.157       .  T
C1081      N1085   1.157       .  T
C1082      N1088   1.157   1_455  T
C1083      N1092   1.157       .  T
C1084      N1090   1.157       .  T
C1093      C1094   1.407       .  A
C1093      C1098   1.412       .  A
C1093      C1111   1.453       .  S
C1094      C1099   1.499   1_554  S
C1094      C1095   1.407       .  A
C1095      C1096   1.413       .  A
C1095      C1100   1.453       .  S
C1096      C1097   1.428       .  A
C1096      C1112   1.451       .  S
C1097      C1098   1.427       .  A
C1098      C1101   1.451       .  S
C1099      C1102   1.413       .  A
C1099      C1106   1.413       .  A
C1100      N1117   1.157   1_554  T
C1101      N1119   1.157       .  T
C1102      C1103   1.410       .  A
C1102      C1107   1.451       .  S
C1103      C1104   1.414       .  A
C1103      C1109   1.452       .  S
C1104      C1105   1.412       .  A
C1105      C1106   1.409       .  A
C1105      C1108   1.451       .  S
C1106      C1110   1.451       .  S
C1107      N1114   1.157       .  T
C1108      N1115   1.157       .  T
C1109      N1113   1.157       .  T
C1110      N1116   1.157       .  T
C1111      N1120   1.157   1_554  T
C1112      N1118   1.158       .  T
C1121      C1122   1.411       .  A
C1121      C1126   1.413       .  A
C1121      C1139   1.450       .  S
C1122      C1127   1.500       .  S
C1122      C1123   1.411       .  A
C1123      C1124   1.413       .  A
C1123      C1128   1.451       .  S
C1124      C1125   1.415       .  A
C1124      C1140   1.451       .  S
C1125      C1126   1.416       .  A
C1126      C1129   1.451       .  S
C1127      C1130   1.411       .  A
C1127      C1134   1.410       .  A
C1128      N1145   1.157       .  T
C1129      N1147   1.157       .  T
C1130      C1131   1.412       .  A
C1130      C1135   1.450       .  S
C1131      C1132   1.417       .  A
C1131      C1137   1.451       .  S
C1132      C1133   1.418       .  A
C1133      C1134   1.413       .  A
C1133      C1136   1.451       .  S
C1134      C1138   1.451       .  S
C1135      N1142   1.157       .  T
C1136      N1143   1.158       .  T
C1137      N1141   1.157       .  T
C1138      N1144   1.157       .  T
C1139      N1148   1.157       .  T
C1140      N1146   1.157       .  T
C1149      C1150   1.411       .  A
C1149      C1154   1.411       .  A
C1149      C1167   1.450       .  S
C1150      C1155   1.495       .  S
C1150      C1151   1.410       .  A
C1151      C1152   1.409       .  A
C1151      C1156   1.451       .  S
C1152      C1153   1.414       .  A
C1152      C1168   1.452       .  S
C1153      C1154   1.414       .  A
C1154      C1157   1.451       .  S
C1155      C1158   1.411       .  A
C1155      C1162   1.410       .  A
C1156      N1173   1.157       .  T
C1157      N1175   1.157       .  T
C1158      C1159   1.411       .  A
C1158      C1163   1.450       .  S
C1159      C1160   1.413       .  A
C1159      C1165   1.451       .  S
C1160      C1161   1.414       .  A
C1161      C1162   1.409       .  A
C1161      C1164   1.452       .  S
C1162      C1166   1.451       .  S
C1163      N1170   1.157       .  T
C1164      N1171   1.157       .  T
C1165      N1169   1.157       .  T
C1166      N1172   1.157       .  T
C1167      N1176   1.157       .  T
C1168      N1174   1.157       .  T
C1177      C1178   1.411       .  A
C1177      C1182   1.411       .  A
C1177      C1195   1.450       .  S
C1178      C1183   1.499   1_556  S
C1178      C1179   1.411       .  A
C1179      C1180   1.412       .  A
C1179      C1184   1.450       .  S
C1180      C1181   1.415       .  A
C1180      C1196   1.451       .  S
C1181      C1182   1.415       .  A
C1182      C1185   1.451       .  S
C1183      C1186   1.411       .  A
C1183      C1190   1.411       .  A
C1184      N1201   1.157   1_556  T
C1185      N1203   1.157       .  T
C1186      C1187   1.413       .  A
C1186      C1191   1.450       .  S
C1187      C1188   1.416       .  A
C1187      C1193   1.451       .  S
C1188      C1189   1.416       .  A
C1189      C1190   1.411       .  A
C1189      C1192   1.451       .  S
C1190      C1194   1.451       .  S
C1191      N1198   1.157       .  T
C1192      N1199   1.157       .  T
C1193      N1197   1.157       .  T
C1194      N1200   1.157       .  T
C1195      N1204   1.157   1_556  T
C1196      N1202   1.157       .  T
C1205      C1206   1.410       .  A
C1205      C1210   1.410       .  A
C1205      C1223   1.451       .  S
C1206      C1211   1.496       .  S
C1206      C1207   1.410       .  A
C1207      C1208   1.412       .  A
C1207      C1212   1.451       .  S
C1208      C1209   1.416       .  A
C1208      C1224   1.451       .  S
C1209      C1210   1.415       .  A
C1210      C1213   1.451       .  S
C1211      C1214   1.411       .  A
C1211      C1218   1.410       .  A
C1212      N1229   1.157       .  T
C1213      N1231   1.157       .  T
C1214      C1215   1.411       .  A
C1214      C1219   1.450       .  S
C1215      C1216   1.414       .  A
C1215      C1221   1.451       .  S
C1216      C1217   1.415       .  A
C1217      C1218   1.410       .  A
C1217      C1220   1.452       .  S
C1218      C1222   1.450       .  S
C1219      N1226   1.157       .  T
C1220      N1227   1.157       .  T
C1221      N1225   1.158       .  T
C1222      N1228   1.157       .  T
C1223      N1232   1.157       .  T
C1224      N1230   1.158       .  T
C1233      C1234   1.408       .  A
C1233      C1238   1.414       .  A
C1233      C1251   1.452       .  S
C1234      C1239   1.501   1_565  S
C1234      C1235   1.408       .  A
C1235      C1236   1.412       .  A
C1235      C1240   1.453       .  S
C1236      C1237   1.427       .  A
C1236      C1252   1.452       .  S
C1237      C1238   1.427       .  A
C1238      C1241   1.451       .  S
C1239      C1242   1.413       .  A
C1239      C1246   1.412       .  A
C1240      N1257   1.157   1_565  T
C1241      N1259   1.158       .  T
C1242      C1243   1.411       .  A
C1242      C1247   1.451       .  S
C1243      C1244   1.413       .  A
C1243      C1249   1.451       .  S
C1244      C1245   1.414       .  A
C1245      C1246   1.412       .  A
C1245      C1248   1.451       .  S
C1246      C1250   1.450       .  S
C1247      N1254   1.157       .  T
C1248      N1255   1.157       .  T
C1249      N1253   1.157       .  T
C1250      N1256   1.157       .  T
C1251      N1260   1.157       .  T
C1252      N1258   1.157       .  T
C1261      C1262   1.411       .  A
C1261      C1266   1.410       .  A
C1261      C1279   1.451       .  S
C1262      C1267   1.496       .  S
C1262      C1263   1.412       .  A
C1263      C1264   1.411       .  A
C1263      C1268   1.450       .  S
C1264      C1265   1.413       .  A
C1264      C1280   1.451       .  S
C1265      C1266   1.413       .  A
C1266      C1269   1.451       .  S
C1267      C1270   1.412       .  A
C1267      C1274   1.411       .  A
C1268      N1285   1.157       .  T
C1269      N1287   1.158       .  T
C1270      C1271   1.411       .  A
C1270      C1275   1.451       .  S
C1271      C1272   1.411       .  A
C1271      C1277   1.449       .  S
C1272      C1273   1.412       .  A
C1273      C1274   1.410       .  A
C1273      C1276   1.451       .  S
C1274      C1278   1.450       .  S
C1275      N1282   1.157       .  T
C1276      N1283   1.157       .  T
C1277      N1281   1.157       .  T
C1278      N1284   1.157       .  T
C1279      N1288   1.157       .  T
C1280      N1286   1.157       .  T
C1289      C1290   1.411       .  A
C1289      C1294   1.411       .  A
C1289      C1307   1.450       .  S
C1290      C1295   1.497   1_545  S
C1290      C1291   1.411       .  A
C1291      C1292   1.411       .  A
C1291      C1296   1.451       .  S
C1292      C1293   1.415       .  A
C1292      C1308   1.451       .  S
C1293      C1294   1.414       .  A
C1294      C1297   1.451       .  S
C1295      C1298   1.411       .  A
C1295      C1302   1.410       .  A
C1296      N1313   1.157       .  T
C1297      N1315   1.157       .  T
C1298      C1299   1.411       .  A
C1298      C1303   1.450       .  S
C1299      C1300   1.416       .  A
C1299      C1305   1.452       .  S
C1300      C1301   1.415       .  A
C1301      C1302   1.411       .  A
C1301      C1304   1.450       .  S
C1302      C1306   1.451       .  S
C1303      N1310   1.157       .  T
C1304      N1311   1.157       .  T
C1305      N1309   1.157       .  T
C1306      N1312   1.157       .  T
C1307      N1316   1.157   1_545  T
C1308      N1314   1.157       .  T
C1317      C1318   1.407       .  A
C1317      C1322   1.413       .  A
C1317      C1335   1.452       .  S
C1318      C1323   1.498   1_554  S
C1318      C1319   1.407       .  A
C1319      C1320   1.411       .  A
C1319      C1324   1.453       .  S
C1320      C1321   1.427       .  A
C1320      C1336   1.451       .  S
C1321      C1322   1.427       .  A
C1322      C1325   1.452       .  S
C1323      C1326   1.411       .  A
C1323      C1330   1.412       .  A
C1324      N1341   1.157       .  T
C1325      N1343   1.158       .  T
C1326      C1327   1.410       .  A
C1326      C1331   1.451       .  S
C1327      C1328   1.413       .  A
C1327      C1333   1.450       .  S
C1328      C1329   1.413       .  A
C1329      C1330   1.411       .  A
C1329      C1332   1.451       .  S
C1330      C1334   1.451       .  S
C1331      N1338   1.157   1_556  T
C1332      N1339   1.157       .  T
C1333      N1337   1.157       .  T
C1334      N1340   1.157       .  T
C1335      N1344   1.157       .  T
C1336      N1342   1.158       .  T
C1345      C1346   1.409       .  A
C1345      C1350   1.412       .  A
C1345      C1363   1.451       .  S
C1346      C1351   1.499       .  S
C1346      C1347   1.411       .  A
C1347      C1348   1.413       .  A
C1347      C1352   1.450       .  S
C1348      C1349   1.416       .  A
C1348      C1364   1.451       .  S
C1349      C1350   1.418       .  A
C1350      C1353   1.452       .  S
C1351      C1354   1.410       .  A
C1351      C1358   1.410       .  A
C1352      N1369   1.157       .  T
C1353      N1371   1.157       .  T
C1354      C1355   1.413       .  A
C1354      C1359   1.451       .  S
C1355      C1356   1.419       .  A
C1355      C1361   1.451       .  S
C1356      C1357   1.417       .  A
C1357      C1358   1.412       .  A
C1357      C1360   1.451       .  S
C1358      C1362   1.451       .  S
C1359      N1366   1.157       .  T
C1360      N1367   1.157       .  T
C1361      N1365   1.157       .  T
C1362      N1368   1.157       .  T
C1363      N1372   1.157       .  T
C1364      N1370   1.157       .  T
C1373      C1374   1.409       .  A
C1373      C1378   1.411       .  A
C1373      C1391   1.451       .  S
C1374      C1379   1.495       .  S
C1374      C1375   1.409       .  A
C1375      C1376   1.411       .  A
C1375      C1380   1.451       .  S
C1376      C1377   1.418       .  A
C1376      C1392   1.451       .  S
C1377      C1378   1.417       .  A
C1378      C1381   1.451       .  S
C1379      C1382   1.410       .  A
C1379      C1386   1.410       .  A
C1380      N1397   1.157       .  T
C1381      N1399   1.157       .  T
C1382      C1383   1.411       .  A
C1382      C1387   1.451       .  S
C1383      C1384   1.416       .  A
C1383      C1389   1.452       .  S
C1384      C1385   1.415       .  A
C1385      C1386   1.410       .  A
C1385      C1388   1.451       .  S
C1386      C1390   1.451       .  S
C1387      N1394   1.157       .  T
C1388      N1395   1.157       .  T
C1389      N1393   1.157       .  T
C1390      N1396   1.157       .  T
C1391      N1400   1.157       .  T
C1392      N1398   1.158       .  T
C1401      C1402   1.407       .  A
C1401      C1406   1.415       .  A
C1401      C1419   1.453       .  S
C1402      C1407   1.503   1_554  S
C1402      C1403   1.408       .  A
C1403      C1404   1.415       .  A
C1403      C1408   1.452       .  S
C1404      C1405   1.428       .  A
C1404      C1420   1.451       .  S
C1405      C1406   1.429       .  A
C1406      C1409   1.451       .  S
C1407      C1410   1.413       .  A
C1407      C1414   1.413       .  A
C1408      N1425   1.158   1_554  T
C1409      N1427   1.158       .  T
C1410      C1411   1.413       .  A
C1410      C1415   1.450       .  S
C1411      C1412   1.413       .  A
C1411      C1417   1.451       .  S
C1412      C1413   1.412       .  A
C1413      C1414   1.412       .  A
C1413      C1416   1.451       .  S
C1414      C1418   1.450       .  S
C1415      N1422   1.157       .  T
C1416      N1423   1.157       .  T
C1417      N1421   1.157       .  T
C1418      N1424   1.157       .  T
C1419      N1428   1.157       .  T
C1420      N1426   1.157       .  T
C1429      C1430   1.411       .  A
C1429      C1434   1.410       .  A
C1429      C1447   1.451       .  S
C1430      C1435   1.494       .  S
C1430      C1431   1.410       .  A
C1431      C1432   1.409       .  A
C1431      C1436   1.450       .  S
C1432      C1433   1.414       .  A
C1432      C1448   1.451       .  S
C1433      C1434   1.414       .  A
C1434      C1437   1.451       .  S
C1435      C1438   1.409       .  A
C1435      C1442   1.410       .  A
C1436      N1453   1.157       .  T
C1437      N1455   1.157       .  T
C1438      C1439   1.410       .  A
C1438      C1443   1.451       .  S
C1439      C1440   1.415       .  A
C1439      C1445   1.452       .  S
C1440      C1441   1.414       .  A
C1441      C1442   1.411       .  A
C1441      C1444   1.450       .  S
C1442      C1446   1.451       .  S
C1443      N1450   1.157       .  T
C1444      N1451   1.157       .  T
C1445      N1449   1.157       .  T
C1446      N1452   1.157       .  T
C1447      N1456   1.157       .  T
C1448      N1454   1.157       .  T
C1457      C1458   1.411       .  A
C1457      C1462   1.412       .  A
C1457      C1475   1.450       .  S
C1458      C1463   1.496   1_655  S
C1458      C1459   1.410       .  A
C1459      C1460   1.410       .  A
C1459      C1464   1.451       .  S
C1460      C1461   1.415       .  A
C1460      C1476   1.451       .  S
C1461      C1462   1.416       .  A
C1462      C1465   1.451       .  S
C1463      C1466   1.410       .  A
C1463      C1470   1.410       .  A
C1464      N1481   1.157       .  T
C1465      N1483   1.157       .  T
C1466      C1467   1.412       .  A
C1466      C1471   1.450       .  S
C1467      C1468   1.416       .  A
C1467      C1473   1.451       .  S
C1468      C1469   1.414       .  A
C1469      C1470   1.410       .  A
C1469      C1472   1.451       .  S
C1470      C1474   1.451       .  S
C1471      N1478   1.157       .  T
C1472      N1479   1.157       .  T
C1473      N1477   1.157       .  T
C1474      N1480   1.157       .  T
C1475      N1484   1.158       .  T
C1476      N1482   1.158       .  T
C1485      C1486   1.410       .  A
C1485      C1490   1.410       .  A
C1485      C1503   1.450       .  S
C1486      C1491   1.494       .  S
C1486      C1487   1.411       .  A
C1487      C1488   1.409       .  A
C1487      C1492   1.450       .  S
C1488      C1489   1.413       .  A
C1488      C1504   1.451       .  S
C1489      C1490   1.414       .  A
C1490      C1493   1.451       .  S
C1491      C1494   1.411       .  A
C1491      C1498   1.410       .  A
C1492      N1509   1.157       .  T
C1493      N1511   1.157       .  T
C1494      C1495   1.410       .  A
C1494      C1499   1.450       .  S
C1495      C1496   1.413       .  A
C1495      C1501   1.451       .  S
C1496      C1497   1.413       .  A
C1497      C1498   1.410       .  A
C1497      C1500   1.451       .  S
C1498      C1502   1.450       .  S
C1499      N1506   1.157       .  T
C1500      N1507   1.157       .  T
C1501      N1505   1.157       .  T
C1502      N1508   1.157       .  T
C1503      N1512   1.157       .  T
C1504      N1510   1.157       .  T
C1513      C1514   1.406       .  A
C1513      C1518   1.411       .  A
C1513      C1531   1.452       .  S
C1514      C1519   1.494   1_655  S
C1514      C1515   1.406       .  A
C1515      C1516   1.411       .  A
C1515      C1520   1.452       .  S
C1516      C1517   1.425       .  A
C1516      C1532   1.450       .  S
C1517      C1518   1.426       .  A
C1518      C1521   1.451       .  S
C1519      C1522   1.411       .  A
C1519      C1526   1.411       .  A
C1520      N1537   1.157   1_655  T
C1521      N1539   1.158       .  T
C1522      C1523   1.408       .  A
C1522      C1527   1.451       .  S
C1523      C1524   1.413       .  A
C1523      C1529   1.451       .  S
C1524      C1525   1.415       .  A
C1525      C1526   1.410       .  A
C1525      C1528   1.452       .  S
C1526      C1530   1.451       .  S
C1527      N1534   1.157       .  T
C1528      N1535   1.157       .  T
C1529      N1533   1.157       .  T
C1530      N1536   1.157       .  T
C1531      N1540   1.157       .  T
C1532      N1538   1.157       .  T
C1541      C1542   1.412       .  A
C1541      C1546   1.413       .  A
C1541      C1559   1.450       .  S
C1542      C1547   1.502   1_556  S
C1542      C1543   1.411       .  A
C1543      C1544   1.413       .  A
C1543      C1548   1.450       .  S
C1544      C1545   1.416       .  A
C1544      C1560   1.452       .  S
C1545      C1546   1.414       .  A
C1546      C1549   1.451       .  S
C1547      C1550   1.410       .  A
C1547      C1554   1.410       .  A
C1548      N1565   1.157       .  T
C1549      N1567   1.157       .  T
C1550      C1551   1.414       .  A
C1550      C1555   1.451       .  S
C1551      C1552   1.417       .  A
C1551      C1557   1.448       .  S
C1552      C1553   1.418       .  A
C1553      C1554   1.414       .  A
C1553      C1556   1.451       .  S
C1554      C1558   1.450       .  S
C1555      N1562   1.157   1_554  T
C1556      N1563   1.157       .  T
C1557      N1561   1.156       .  T
C1558      N1564   1.157       .  T
C1559      N1568   1.157       .  T
C1560      N1566   1.157       .  T
C1569      C1570   1.411       .  A
C1569      C1574   1.412       .  A
C1569      C1587   1.450       .  S
C1570      C1575   1.497       .  S
C1570      C1571   1.410       .  A
C1571      C1572   1.411       .  A
C1571      C1576   1.451       .  S
C1572      C1573   1.416       .  A
C1572      C1588   1.451       .  S
C1573      C1574   1.414       .  A
C1574      C1577   1.451       .  S
C1575      C1578   1.411       .  A
C1575      C1582   1.411       .  A
C1576      N1593   1.157       .  T
C1577      N1595   1.157       .  T
C1578      C1579   1.411       .  A
C1578      C1583   1.450       .  S
C1579      C1580   1.415       .  A
C1579      C1585   1.451       .  S
C1580      C1581   1.414       .  A
C1581      C1582   1.411       .  A
C1581      C1584   1.451       .  S
C1582      C1586   1.450       .  S
C1583      N1590   1.157       .  T
C1584      N1591   1.157       .  T
C1585      N1589   1.157       .  T
C1586      N1592   1.157       .  T
C1587      N1596   1.157       .  T
C1588      N1594   1.158       .  T
C1597      C1598   1.410       .  A
C1597      C1602   1.411       .  A
C1597      C1615   1.451       .  S
C1598      C1603   1.497       .  S
C1598      C1599   1.409       .  A
C1599      C1600   1.411       .  A
C1599      C1604   1.451       .  S
C1600      C1601   1.419       .  A
C1600      C1616   1.451       .  S
C1601      C1602   1.417       .  A
C1602      C1605   1.451       .  S
C1603      C1606   1.409       .  A
C1603      C1610   1.409       .  A
C1604      N1621   1.157       .  T
C1605      N1623   1.157       .  T
C1606      C1607   1.412       .  A
C1606      C1611   1.451       .  S
C1607      C1608   1.420       .  A
C1607      C1613   1.451       .  S
C1608      C1609   1.419       .  A
C1609      C1610   1.411       .  A
C1609      C1612   1.451       .  S
C1610      C1614   1.451       .  S
C1611      N1618   1.157       .  T
C1612      N1619   1.158       .  T
C1613      N1617   1.158       .  T
C1614      N1620   1.157       .  T
C1615      N1624   1.157       .  T
C1616      N1622   1.158       .  T
C1625      C1626   1.412       .  A
C1625      C1630   1.412       .  A
C1625      C1643   1.451       .  S
C1626      C1631   1.500   1_554  S
C1626      C1627   1.411       .  A
C1627      C1628   1.412       .  A
C1627      C1632   1.450       .  S
C1628      C1629   1.416       .  A
C1628      C1644   1.452       .  S
C1629      C1630   1.414       .  A
C1630      C1633   1.451       .  S
C1631      C1634   1.412       .  A
C1631      C1638   1.412       .  A
C1632      N1649   1.157       .  T
C1633      N1651   1.157       .  T
C1634      C1635   1.414       .  A
C1634      C1639   1.450       .  S
C1635      C1636   1.415       .  A
C1635      C1641   1.451       .  S
C1636      C1637   1.415       .  A
C1637      C1638   1.411       .  A
C1637      C1640   1.451       .  S
C1638      C1642   1.451       .  S
C1639      N1646   1.157       .  T
C1640      N1647   1.157       .  T
C1641      N1645   1.157       .  T
C1642      N1648   1.157       .  T
C1643      N1652   1.157   1_554  T
C1644      N1650   1.157       .  T
C1653      C1654   1.411       .  A
C1653      C1658   1.413       .  A
C1653      C1671   1.450       .  S
C1654      C1659   1.498       .  S
C1654      C1655   1.410       .  A
C1655      C1656   1.412       .  A
C1655      C1660   1.451       .  S
C1656      C1657   1.414       .  A
C1656      C1672   1.448       .  S
C1657      C1658   1.415       .  A
C1658      C1661   1.451       .  S
C1659      C1662   1.412       .  A
C1659      C1666   1.411       .  A
C1660      N1677   1.157       .  T
C1661      N1679   1.157       .  T
C1662      C1663   1.413       .  A
C1662      C1667   1.450       .  S
C1663      C1664   1.413       .  A
C1663      C1669   1.451       .  S
C1664      C1665   1.414       .  A
C1665      C1666   1.410       .  A
C1665      C1668   1.452       .  S
C1666      C1670   1.450       .  S
C1667      N1674   1.157       .  T
C1668      N1675   1.157       .  T
C1669      N1673   1.157       .  T
C1670      N1676   1.157       .  T
C1671      N1680   1.157       .  T
C1672      N1678   1.156       .  T
C1681      C1682   1.408       .  A
C1681      C1686   1.412       .  A
C1681      C1699   1.451       .  S
C1682      C1687   1.498   1_545  S
C1682      C1683   1.409       .  A
C1683      C1684   1.413       .  A
C1683      C1688   1.452       .  S
C1684      C1685   1.420       .  A
C1684      C1700   1.449       .  S
C1685      C1686   1.421       .  A
C1686      C1689   1.452       .  S
C1687      C1690   1.411       .  A
C1687      C1694   1.411       .  A
C1688      N1705   1.157   1_545  T
C1689      N1707   1.157       .  T
C1690      C1691   1.412       .  A
C1690      C1695   1.450       .  S
C1691      C1692   1.413       .  A
C1691      C1697   1.451       .  S
C1692      C1693   1.413       .  A
C1693      C1694   1.412       .  A
C1693      C1696   1.451       .  S
C1694      C1698   1.450       .  S
C1695      N1702   1.157       .  T
C1696      N1703   1.157       .  T
C1697      N1701   1.157       .  T
C1698      N1704   1.157       .  T
C1699      N1708   1.157       .  T
C1700      N1706   1.157       .  T
C1709      C1710   1.411       .  A
C1709      C1714   1.413       .  A
C1709      C1727   1.450       .  S
C1710      C1715   1.501       .  S
C1710      C1711   1.412       .  A
C1711      C1712   1.414       .  A
C1711      C1716   1.450       .  S
C1712      C1713   1.415       .  A
C1712      C1728   1.451       .  S
C1713      C1714   1.415       .  A
C1714      C1717   1.451       .  S
C1715      C1718   1.412       .  A
C1715      C1722   1.412       .  A
C1716      N1733   1.157       .  T
C1717      N1735   1.157       .  T
C1718      C1719   1.414       .  A
C1718      C1723   1.450       .  S
C1719      C1720   1.414       .  A
C1719      C1725   1.451       .  S
C1720      C1721   1.413       .  A
C1721      C1722   1.412       .  A
C1721      C1724   1.450       .  S
C1722      C1726   1.450       .  S
C1723      N1730   1.157       .  T
C1724      N1731   1.157       .  T
C1725      N1729   1.158       .  T
C1726      N1732   1.157       .  T
C1727      N1736   1.157       .  T
C1728      N1734   1.158       .  T
C1737      C1738   1.411       .  A
C1737      C1742   1.413       .  A
C1737      C1755   1.450       .  S
C1738      C1743   1.500   1_565  S
C1738      C1739   1.412       .  A
C1739      C1740   1.412       .  A
C1739      C1744   1.451       .  S
C1740      C1741   1.414       .  A
C1740      C1756   1.451       .  S
C1741      C1742   1.415       .  A
C1742      C1745   1.451       .  S
C1743      C1746   1.410       .  A
C1743      C1750   1.411       .  A
C1744      N1761   1.157       .  T
C1745      N1763   1.157       .  T
C1746      C1747   1.411       .  A
C1746      C1751   1.451       .  S
C1747      C1748   1.417       .  A
C1747      C1753   1.452       .  S
C1748      C1749   1.417       .  A
C1749      C1750   1.414       .  A
C1749      C1752   1.450       .  S
C1750      C1754   1.451       .  S
C1751      N1758   1.157   1_545  T
C1752      N1759   1.158       .  T
C1753      N1757   1.157       .  T
C1754      N1760   1.157   1_545  T
C1755      N1764   1.157       .  T
C1756      N1762   1.157       .  T
C1765      C1766   1.412       .  A
C1765      C1770   1.412       .  A
C1765      C1783   1.450       .  S
C1766      C1771   1.497   1_554  S
C1766      C1767   1.411       .  A
C1767      C1768   1.410       .  A
C1767      C1772   1.450       .  S
C1768      C1769   1.413       .  A
C1768      C1784   1.452       .  S
C1769      C1770   1.412       .  A
C1770      C1773   1.451       .  S
C1771      C1774   1.407       .  A
C1771      C1778   1.407       .  A
C1772      N1789   1.157       .  T
C1773      N1791   1.157       .  T
C1774      C1775   1.413       .  A
C1774      C1779   1.452       .  S
C1775      C1776   1.424       .  A
C1775      C1781   1.451       .  S
C1776      C1777   1.425       .  A
C1777      C1778   1.413       .  A
C1777      C1780   1.451       .  S
C1778      C1782   1.452       .  S
C1779      N1786   1.157       .  T
C1780      N1787   1.158       .  T
C1781      N1785   1.158       .  T
C1782      N1788   1.157       .  T
C1783      N1792   1.157   1_554  T
C1784      N1790   1.157       .  T
C1793      C1794   1.412       .  A
C1793      C1798   1.411       .  A
C1793      C1811   1.450       .  S
C1794      C1799   1.498   1_545  S
C1794      C1795   1.412       .  A
C1795      C1796   1.410       .  A
C1795      C1800   1.451       .  S
C1796      C1797   1.412       .  A
C1796      C1812   1.451       .  S
C1797      C1798   1.412       .  A
C1798      C1801   1.451       .  S
C1799      C1802   1.407       .  A
C1799      C1806   1.407       .  A
C1800      N1817   1.157       .  T
C1801      N1819   1.157       .  T
C1802      C1803   1.412       .  A
C1802      C1807   1.453       .  S
C1803      C1804   1.428       .  A
C1803      C1809   1.451       .  S
C1804      C1805   1.428       .  A
C1805      C1806   1.413       .  A
C1805      C1808   1.451       .  S
C1806      C1810   1.452       .  S
C1807      N1814   1.157   1_565  T
C1808      N1815   1.157       .  T
C1809      N1813   1.158       .  T
C1810      N1816   1.157       .  T
C1811      N1820   1.157       .  T
C1812      N1818   1.157       .  T
C1821      C1822   1.410       .  A
C1821      C1826   1.412       .  A
C1821      C1839   1.450       .  S
C1822      C1827   1.499   1_655  S
C1822      C1823   1.411       .  A
C1823      C1824   1.413       .  A
C1823      C1828   1.451       .  S
C1824      C1825   1.416       .  A
C1824      C1840   1.451       .  S
C1825      C1826   1.415       .  A
C1826      C1829   1.451       .  S
C1827      C1830   1.410       .  A
C1827      C1834   1.411       .  A
C1828      N1845   1.157   1_655  T
C1829      N1847   1.157       .  T
C1830      C1831   1.411       .  A
C1830      C1835   1.451       .  S
C1831      C1832   1.416       .  A
C1831      C1837   1.451       .  S
C1832      C1833   1.417       .  A
C1833      C1834   1.413       .  A
C1833      C1836   1.451       .  S
C1834      C1838   1.450       .  S
C1835      N1842   1.157       .  T
C1836      N1843   1.157       .  T
C1837      N1841   1.158       .  T
C1838      N1844   1.157       .  T
C1839      N1848   1.157       .  T
C1840      N1846   1.158       .  T
C1849      C1850   1.411       .  A
C1849      C1854   1.413       .  A
C1849      C1867   1.451       .  S
C1850      C1855   1.500   1_655  S
C1850      C1851   1.410       .  A
C1851      C1852   1.412       .  A
C1851      C1856   1.451       .  S
C1852      C1853   1.418       .  A
C1852      C1868   1.451       .  S
C1853      C1854   1.418       .  A
C1854      C1857   1.450       .  S
C1855      C1858   1.410       .  A
C1855      C1862   1.411       .  A
C1856      N1873   1.157       .  T
C1857      N1875   1.157       .  T
C1858      C1859   1.412       .  A
C1858      C1863   1.451       .  S
C1859      C1860   1.418       .  A
C1859      C1865   1.452       .  S
C1860      C1861   1.418       .  A
C1861      C1862   1.413       .  A
C1861      C1864   1.451       .  S
C1862      C1866   1.451       .  S
C1863      N1870   1.157       .  T
C1864      N1871   1.158       .  T
C1865      N1869   1.157       .  T
C1866      N1872   1.157   1_455  T
C1867      N1876   1.157       .  T
C1868      N1874   1.157       .  T
C1877      C1878   1.407       .  A
C1877      C1882   1.414       .  A
C1877      C1895   1.452       .  S
C1878      C1883   1.498   1_565  S
C1878      C1879   1.406       .  A
C1879      C1880   1.411       .  A
C1879      C1884   1.453       .  S
C1880      C1881   1.428       .  A
C1880      C1896   1.451       .  S
C1881      C1882   1.427       .  A
C1882      C1885   1.451       .  S
C1883      C1886   1.411       .  A
C1883      C1890   1.412       .  A
C1884      N1901   1.157   1_565  T
C1885      N1903   1.157       .  T
C1886      C1887   1.409       .  A
C1886      C1891   1.451       .  S
C1887      C1888   1.413       .  A
C1887      C1893   1.451       .  S
C1888      C1889   1.413       .  A
C1889      C1890   1.412       .  A
C1889      C1892   1.451       .  S
C1890      C1894   1.450       .  S
C1891      N1898   1.157       .  T
C1892      N1899   1.157       .  T
C1893      N1897   1.157       .  T
C1894      N1900   1.157       .  T
C1895      N1904   1.158   1_565  T
C1896      N1902   1.158       .  T
C1905      C1906   1.408       .  A
C1905      C1910   1.412       .  A
C1905      C1923   1.452       .  S
C1906      C1911   1.498       .  S
C1906      C1907   1.408       .  A
C1907      C1908   1.411       .  A
C1907      C1912   1.453       .  S
C1908      C1909   1.425       .  A
C1908      C1924   1.451       .  S
C1909      C1910   1.424       .  A
C1910      C1913   1.452       .  S
C1911      C1914   1.407       .  A
C1911      C1918   1.406       .  A
C1912      N1929   1.157       .  T
C1913      N1931   1.157       .  T
C1914      C1915   1.412       .  A
C1914      C1919   1.453       .  S
C1915      C1916   1.427       .  A
C1915      C1921   1.452       .  S
C1916      C1917   1.429       .  A
C1917      C1918   1.411       .  A
C1917      C1920   1.452       .  S
C1918      C1922   1.453       .  S
C1919      N1926   1.157       .  T
C1920      N1927   1.158       .  T
C1921      N1925   1.158       .  T
C1922      N1928   1.157       .  T
C1923      N1932   1.157       .  T
C1924      N1930   1.158       .  T
C1933      C1934   1.411       .  A
C1933      C1938   1.409       .  A
C1933      C1951   1.451       .  S
C1934      C1939   1.494       .  S
C1934      C1935   1.411       .  A
C1935      C1936   1.410       .  A
C1935      C1940   1.451       .  S
C1936      C1937   1.414       .  A
C1936      C1952   1.452       .  S
C1937      C1938   1.412       .  A
C1938      C1941   1.451       .  S
C1939      C1942   1.411       .  A
C1939      C1946   1.411       .  A
C1940      N1957   1.157       .  T
C1941      N1959   1.157       .  T
C1942      C1943   1.410       .  A
C1942      C1947   1.451       .  S
C1943      C1944   1.412       .  A
C1943      C1949   1.449       .  S
C1944      C1945   1.413       .  A
C1945      C1946   1.409       .  A
C1945      C1948   1.451       .  S
C1946      C1950   1.451       .  S
C1947      N1954   1.157       .  T
C1948      N1955   1.157       .  T
C1949      N1953   1.157       .  T
C1950      N1956   1.157       .  T
C1951      N1960   1.157       .  T
C1952      N1958   1.158       .  T
C1961      C1962   1.411       .  A
C1961      C1966   1.412       .  A
C1961      C1979   1.451       .  S
C1962      C1967   1.501       .  S
C1962      C1963   1.411       .  A
C1963      C1964   1.414       .  A
C1963      C1968   1.450       .  S
C1964      C1965   1.416       .  A
C1964      C1980   1.451       .  S
C1965      C1966   1.416       .  A
C1966      C1969   1.451       .  S
C1967      C1970   1.410       .  A
C1967      C1974   1.410       .  A
C1968      N1985   1.157       .  T
C1969      N1987   1.158       .  T
C1970      C1971   1.414       .  A
C1970      C1975   1.451       .  S
C1971      C1972   1.418       .  A
C1971      C1977   1.450       .  S
C1972      C1973   1.418       .  A
C1973      C1974   1.413       .  A
C1973      C1976   1.451       .  S
C1974      C1978   1.451       .  S
C1975      N1982   1.157       .  T
C1976      N1983   1.158       .  T
C1977      N1981   1.157       .  T
C1978      N1984   1.157       .  T
C1979      N1988   1.157       .  T
C1980      N1986   1.157       .  T
C1989      C1990   1.411       .  A
C1989      C1994   1.409       .  A
C1989      C2007   1.451       .  S
C1990      C1995   1.494       .  S
C1990      C1991   1.411       .  A
C1991      C1992   1.409       .  A
C1991      C1996   1.451       .  S
C1992      C1993   1.414       .  A
C1992      C2008   1.451       .  S
C1993      C1994   1.415       .  A
C1994      C1997   1.452       .  S
C1995      C1998   1.411       .  A
C1995      C2002   1.411       .  A
C1996      N2013   1.157       .  T
C1997      N2015   1.157       .  T
C1998      C1999   1.410       .  A
C1998      C2003   1.451       .  S
C1999      C2000   1.413       .  A
C1999      C2005   1.451       .  S
C2000      C2001   1.413       .  A
C2001      C2002   1.409       .  A
C2001      C2004   1.452       .  S
C2002      C2006   1.451       .  S
C2003      N2010   1.157       .  T
C2004      N2011   1.157       .  T
C2005      N2009   1.157       .  T
C2006      N2012   1.157       .  T
C2007      N2016   1.157       .  T
C2008      N2014   1.157       .  T
C2017      C2018   1.410       .  A
C2017      C2022   1.410       .  A
C2017      C2035   1.450       .  S
C2018      C2023   1.493       .  S
C2018      C2019   1.410       .  A
C2019      C2020   1.410       .  A
C2019      C2024   1.451       .  S
C2020      C2021   1.412       .  A
C2020      C2036   1.450       .  S
C2021      C2022   1.414       .  A
C2022      C2025   1.451       .  S
C2023      C2026   1.411       .  A
C2023      C2030   1.411       .  A
C2024      N2041   1.157       .  T
C2025      N2043   1.157       .  T
C2026      C2027   1.411       .  A
C2026      C2031   1.450       .  S
C2027      C2028   1.413       .  A
C2027      C2033   1.451       .  S
C2028      C2029   1.411       .  A
C2029      C2030   1.409       .  A
C2029      C2032   1.451       .  S
C2030      C2034   1.450       .  S
C2031      N2038   1.157       .  T
C2032      N2039   1.157       .  T
C2033      N2037   1.157       .  T
C2034      N2040   1.157       .  T
C2035      N2044   1.157       .  T
C2036      N2042   1.157       .  T
C2045      C2046   1.411       .  A
C2045      C2050   1.412       .  A
C2045      C2063   1.450       .  S
C2046      C2051   1.501       .  S
C2046      C2047   1.412       .  A
C2047      C2048   1.413       .  A
C2047      C2052   1.450       .  S
C2048      C2049   1.414       .  A
C2048      C2064   1.451       .  S
C2049      C2050   1.415       .  A
C2050      C2053   1.452       .  S
C2051      C2054   1.411       .  A
C2051      C2058   1.411       .  A
C2052      N2069   1.157       .  T
C2053      N2071   1.157       .  T
C2054      C2055   1.414       .  A
C2054      C2059   1.450       .  S
C2055      C2056   1.416       .  A
C2055      C2061   1.451       .  S
C2056      C2057   1.416       .  A
C2057      C2058   1.412       .  A
C2057      C2060   1.451       .  S
C2058      C2062   1.451       .  S
C2059      N2066   1.157       .  T
C2060      N2067   1.157       .  T
C2061      N2065   1.157       .  T
C2062      N2068   1.157       .  T
C2063      N2072   1.157       .  T
C2064      N2070   1.157       .  T
C2073      C2074   1.409       .  A
C2073      C2078   1.412       .  A
C2073      C2091   1.451       .  S
C2074      C2079   1.496       .  S
C2074      C2075   1.410       .  A
C2075      C2076   1.411       .  A
C2075      C2080   1.451       .  S
C2076      C2077   1.416       .  A
C2076      C2092   1.451       .  S
C2077      C2078   1.417       .  A
C2078      C2081   1.451       .  S
C2079      C2082   1.410       .  A
C2079      C2086   1.410       .  A
C2080      N2097   1.157       .  T
C2081      N2099   1.158       .  T
C2082      C2083   1.410       .  A
C2082      C2087   1.450       .  S
C2083      C2084   1.415       .  A
C2083      C2089   1.452       .  S
C2084      C2085   1.415       .  A
C2085      C2086   1.411       .  A
C2085      C2088   1.451       .  S
C2086      C2090   1.450       .  S
C2087      N2094   1.157       .  T
C2088      N2095   1.157       .  T
C2089      N2093   1.157       .  T
C2090      N2096   1.157       .  T
C2091      N2100   1.157       .  T
C2092      N2098   1.157       .  T
C2101      C2102   1.412       .  A
C2101      C2106   1.413       .  A
C2101      C2119   1.450       .  S
C2102      C2107   1.501       .  S
C2102      C2103   1.411       .  A
C2103      C2104   1.413       .  A
C2103      C2108   1.450       .  S
C2104      C2105   1.414       .  A
C2104      C2120   1.451       .  S
C2105      C2106   1.413       .  A
C2106      C2109   1.451       .  S
C2107      C2110   1.412       .  A
C2107      C2114   1.412       .  A
C2108      N2125   1.157       .  T
C2109      N2127   1.157       .  T
C2110      C2111   1.414       .  A
C2110      C2115   1.450       .  S
C2111      C2112   1.414       .  A
C2111      C2117   1.451       .  S
C2112      C2113   1.413       .  A
C2113      C2114   1.412       .  A
C2113      C2116   1.451       .  S
C2114      C2118   1.450       .  S
C2115      N2122   1.157       .  T
C2116      N2123   1.157       .  T
C2117      N2121   1.157       .  T
C2118      N2124   1.157       .  T
C2119      N2128   1.157       .  T
C2120      N2126   1.157       .  T
C2129      C2130   1.411       .  A
C2129      C2134   1.411       .  A
C2129      C2147   1.451       .  S
C2130      C2135   1.499       .  S
C2130      C2131   1.410       .  A
C2131      C2132   1.413       .  A
C2131      C2136   1.450       .  S
C2132      C2133   1.417       .  A
C2132      C2148   1.452       .  S
C2133      C2134   1.414       .  A
C2134      C2137   1.451       .  S
C2135      C2138   1.409       .  A
C2135      C2142   1.409       .  A
C2136      N2153   1.158       .  T
C2137      N2155   1.158       .  T
C2138      C2139   1.413       .  A
C2138      C2143   1.451       .  S
C2139      C2140   1.420       .  A
C2139      C2145   1.451       .  S
C2140      C2141   1.421       .  A
C2141      C2142   1.412       .  A
C2141      C2144   1.451       .  S
C2142      C2146   1.451       .  S
C2143      N2150   1.157       .  T
C2144      N2151   1.158       .  T
C2145      N2149   1.157       .  T
C2146      N2152   1.157       .  T
C2147      N2156   1.157       .  T
C2148      N2154   1.157       .  T
C2157      C2158   1.409       .  A
C2157      C2162   1.411       .  A
C2157      C2175   1.451       .  S
C2158      C2163   1.497       .  S
C2158      C2159   1.410       .  A
C2159      C2160   1.412       .  A
C2159      C2164   1.451       .  S
C2160      C2161   1.416       .  A
C2160      C2176   1.451       .  S
C2161      C2162   1.418       .  A
C2162      C2165   1.452       .  S
C2163      C2166   1.411       .  A
C2163      C2170   1.410       .  A
C2164      N2181   1.157       .  T
C2165      N2183   1.158       .  T
C2166      C2167   1.412       .  A
C2166      C2171   1.450       .  S
C2167      C2168   1.415       .  A
C2167      C2173   1.451       .  S
C2168      C2169   1.415       .  A
C2169      C2170   1.411       .  A
C2169      C2172   1.451       .  S
C2170      C2174   1.451       .  S
C2171      N2178   1.157       .  T
C2172      N2179   1.157       .  T
C2173      N2177   1.157       .  T
C2174      N2180   1.157       .  T
C2175      N2184   1.157       .  T
C2176      N2182   1.157       .  T
C2185      C2186   1.411       .  A
C2185      C2190   1.412       .  A
C2185      C2203   1.450       .  S
C2186      C2191   1.496       .  S
C2186      C2187   1.410       .  A
C2187      C2188   1.410       .  A
C2187      C2192   1.451       .  S
C2188      C2189   1.414       .  A
C2188      C2204   1.451       .  S
C2189      C2190   1.415       .  A
C2190      C2193   1.451       .  S
C2191      C2194   1.411       .  A
C2191      C2198   1.411       .  A
C2192      N2209   1.157       .  T
C2193      N2211   1.157       .  T
C2194      C2195   1.412       .  A
C2194      C2199   1.450       .  S
C2195      C2196   1.414       .  A
C2195      C2201   1.451       .  S
C2196      C2197   1.413       .  A
C2197      C2198   1.410       .  A
C2197      C2200   1.451       .  S
C2198      C2202   1.451       .  S
C2199      N2206   1.157       .  T
C2200      N2207   1.157       .  T
C2201      N2205   1.157       .  T
C2202      N2208   1.157       .  T
C2203      N2212   1.157       .  T
C2204      N2210   1.157       .  T
C2213      C2214   1.411       .  A
C2213      C2218   1.411       .  A
C2213      C2231   1.450       .  S
C2214      C2219   1.497       .  S
C2214      C2215   1.411       .  A
C2215      C2216   1.411       .  A
C2215      C2220   1.450       .  S
C2216      C2217   1.413       .  A
C2216      C2232   1.451       .  S
C2217      C2218   1.413       .  A
C2218      C2221   1.451       .  S
C2219      C2222   1.411       .  A
C2219      C2226   1.410       .  A
C2220      N2237   1.157       .  T
C2221      N2239   1.157       .  T
C2222      C2223   1.412       .  A
C2222      C2227   1.450       .  S
C2223      C2224   1.414       .  A
C2223      C2229   1.451       .  S
C2224      C2225   1.415       .  A
C2225      C2226   1.411       .  A
C2225      C2228   1.451       .  S
C2226      C2230   1.450       .  S
C2227      N2234   1.157       .  T
C2228      N2235   1.157       .  T
C2229      N2233   1.158       .  T
C2230      N2236   1.157       .  T
C2231      N2240   1.157       .  T
C2232      N2238   1.157       .  T
C2241      C2242   1.411       .  A
C2241      C2246   1.413       .  A
C2241      C2259   1.450       .  S
C2242      C2247   1.501       .  S
C2242      C2243   1.411       .  A
C2243      C2244   1.413       .  A
C2243      C2248   1.450       .  S
C2244      C2245   1.416       .  A
C2244      C2260   1.451       .  S
C2245      C2246   1.415       .  A
C2246      C2249   1.450       .  S
C2247      C2250   1.409       .  A
C2247      C2254   1.411       .  A
C2248      N2265   1.157       .  T
C2249      N2267   1.157       .  T
C2250      C2251   1.412       .  A
C2250      C2255   1.452       .  S
C2251      C2252   1.415       .  A
C2251      C2257   1.446       .  S
C2252      C2253   1.415       .  A
C2253      C2254   1.414       .  A
C2253      C2256   1.451       .  S
C2254      C2258   1.450       .  S
C2255      N2262   1.157       .  T
C2256      N2263   1.157       .  T
C2257      N2261   1.156       .  T
C2258      N2264   1.157       .  T
C2259      N2268   1.157       .  T
C2260      N2266   1.157       .  T
C2269      C2270   1.410       .  A
C2269      C2274   1.412       .  A
C2269      C2287   1.450       .  S
C2270      C2275   1.497       .  S
C2270      C2271   1.410       .  A
C2271      C2272   1.410       .  A
C2271      C2276   1.451       .  S
C2272      C2273   1.415       .  A
C2272      C2288   1.449       .  S
C2273      C2274   1.416       .  A
C2274      C2277   1.451       .  S
C2275      C2278   1.410       .  A
C2275      C2282   1.410       .  A
C2276      N2293   1.157       .  T
C2277      N2295   1.157       .  T
C2278      C2279   1.411       .  A
C2278      C2283   1.451       .  S
C2279      C2280   1.416       .  A
C2279      C2285   1.451       .  S
C2280      C2281   1.417       .  A
C2281      C2282   1.411       .  A
C2281      C2284   1.451       .  S
C2282      C2286   1.451       .  S
C2283      N2290   1.157       .  T
C2284      N2291   1.157       .  T
C2285      N2289   1.157       .  T
C2286      N2292   1.157       .  T
C2287      N2296   1.157       .  T
C2288      N2294   1.157       .  T
C2297      C2298   1.410       .  A
C2297      C2302   1.410       .  A
C2297      C2315   1.451       .  S
C2298      C2303   1.495       .  S
C2298      C2299   1.410       .  A
C2299      C2300   1.411       .  A
C2299      C2304   1.450       .  S
C2300      C2301   1.416       .  A
C2300      C2316   1.451       .  S
C2301      C2302   1.415       .  A
C2302      C2305   1.451       .  S
C2303      C2306   1.409       .  A
C2303      C2310   1.409       .  A
C2304      N2321   1.157       .  T
C2305      N2323   1.157       .  T
C2306      C2307   1.410       .  A
C2306      C2311   1.451       .  S
C2307      C2308   1.416       .  A
C2307      C2313   1.451       .  S
C2308      C2309   1.417       .  A
C2309      C2310   1.411       .  A
C2309      C2312   1.451       .  S
C2310      C2314   1.450       .  S
C2311      N2318   1.157       .  T
C2312      N2319   1.157       .  T
C2313      N2317   1.158       .  T
C2314      N2320   1.157       .  T
C2315      N2324   1.157       .  T
C2316      N2322   1.157       .  T
C2325      C2326   1.412       .  A
C2325      C2330   1.413       .  A
C2325      C2343   1.450       .  S
C2326      C2331   1.501       .  S
C2326      C2327   1.411       .  A
C2327      C2328   1.413       .  A
C2327      C2332   1.450       .  S
C2328      C2329   1.413       .  A
C2328      C2344   1.449       .  S
C2329      C2330   1.414       .  A
C2330      C2333   1.451       .  S
C2331      C2334   1.412       .  A
C2331      C2338   1.412       .  A
C2332      N2349   1.157       .  T
C2333      N2351   1.157       .  T
C2334      C2335   1.413       .  A
C2334      C2339   1.450       .  S
C2335      C2336   1.413       .  A
C2335      C2341   1.450       .  S
C2336      C2337   1.412       .  A
C2337      C2338   1.412       .  A
C2337      C2340   1.449       .  S
C2338      C2342   1.450       .  S
C2339      N2346   1.157       .  T
C2340      N2347   1.157       .  T
C2341      N2345   1.157       .  T
C2342      N2348   1.157       .  T
C2343      N2352   1.157       .  T
C2344      N2350   1.157       .  T
C2353      C2354   1.412       .  A
C2353      C2358   1.412       .  A
C2353      C2371   1.451       .  S
C2354      C2359   1.498       .  S
C2354      C2355   1.411       .  A
C2355      C2356   1.410       .  A
C2355      C2360   1.450       .  S
C2356      C2357   1.413       .  A
C2356      C2372   1.452       .  S
C2357      C2358   1.414       .  A
C2358      C2361   1.451       .  S
C2359      C2362   1.407       .  A
C2359      C2366   1.407       .  A
C2360      N2377   1.157       .  T
C2361      N2379   1.158       .  T
C2362      C2363   1.413       .  A
C2362      C2367   1.452       .  S
C2363      C2364   1.427       .  A
C2363      C2369   1.451       .  S
C2364      C2365   1.427       .  A
C2365      C2366   1.412       .  A
C2365      C2368   1.452       .  S
C2366      C2370   1.452       .  S
C2367      N2374   1.157       .  T
C2368      N2375   1.157       .  T
C2369      N2373   1.158       .  T
C2370      N2376   1.157       .  T
C2371      N2380   1.157       .  T
C2372      N2378   1.157       .  T
C2381      C2382   1.410       .  A
C2381      C2386   1.411       .  A
C2381      C2399   1.451       .  S
C2382      C2387   1.495       .  S
C2382      C2383   1.409       .  A
C2383      C2384   1.410       .  A
C2383      C2388   1.451       .  S
C2384      C2385   1.417       .  A
C2384      C2400   1.451       .  S
C2385      C2386   1.416       .  A
C2386      C2389   1.451       .  S
C2387      C2390   1.410       .  A
C2387      C2394   1.410       .  A
C2388      N2405   1.157       .  T
C2389      N2407   1.157       .  T
C2390      C2391   1.410       .  A
C2390      C2395   1.451       .  S
C2391      C2392   1.415       .  A
C2391      C2397   1.451       .  S
C2392      C2393   1.416       .  A
C2393      C2394   1.411       .  A
C2393      C2396   1.451       .  S
C2394      C2398   1.451       .  S
C2395      N2402   1.157       .  T
C2396      N2403   1.157       .  T
C2397      N2401   1.157       .  T
C2398      N2404   1.157       .  T
C2399      N2408   1.157       .  T
C2400      N2406   1.157       .  T
C2409      C2410   1.406       .  A
C2409      C2414   1.413       .  A
C2409      C2427   1.452       .  S
C2410      C2415   1.496       .  S
C2410      C2411   1.405       .  A
C2411      C2412   1.411       .  A
C2411      C2416   1.452       .  S
C2412      C2413   1.428       .  A
C2412      C2428   1.451       .  S
C2413      C2414   1.427       .  A
C2414      C2417   1.451       .  S
C2415      C2418   1.412       .  A
C2415      C2422   1.411       .  A
C2416      N2433   1.157       .  T
C2417      N2435   1.158       .  T
C2418      C2419   1.410       .  A
C2418      C2423   1.451       .  S
C2419      C2420   1.411       .  A
C2419      C2425   1.451       .  S
C2420      C2421   1.412       .  A
C2421      C2422   1.411       .  A
C2421      C2424   1.452       .  S
C2422      C2426   1.450       .  S
C2423      N2430   1.157       .  T
C2424      N2431   1.157       .  T
C2425      N2429   1.158       .  T
C2426      N2432   1.157       .  T
C2427      N2436   1.157       .  T
C2428      N2434   1.158       .  T
C2437      C2438   1.411       .  A
C2437      C2442   1.411       .  A
C2437      C2455   1.451       .  S
C2438      C2443   1.498       .  S
C2438      C2439   1.411       .  A
C2439      C2440   1.412       .  A
C2439      C2444   1.450       .  S
C2440      C2441   1.415       .  A
C2440      C2456   1.451       .  S
C2441      C2442   1.413       .  A
C2442      C2445   1.449       .  S
C2443      C2446   1.410       .  A
C2443      C2450   1.409       .  A
C2444      N2461   1.157       .  T
C2445      N2463   1.157       .  T
C2446      C2447   1.411       .  A
C2446      C2451   1.451       .  S
C2447      C2448   1.418       .  A
C2447      C2453   1.451       .  S
C2448      C2449   1.418       .  A
C2449      C2450   1.412       .  A
C2449      C2452   1.451       .  S
C2450      C2454   1.451       .  S
C2451      N2458   1.157       .  T
C2452      N2459   1.157       .  T
C2453      N2457   1.157       .  T
C2454      N2460   1.157       .  T
C2455      N2464   1.157       .  T
C2456      N2462   1.158       .  T
C2465      C2466   1.412       .  A
C2465      C2470   1.412       .  A
C2465      C2483   1.450       .  S
C2466      C2471   1.499       .  S
C2466      C2467   1.411       .  A
C2467      C2468   1.412       .  A
C2467      C2472   1.450       .  S
C2468      C2469   1.415       .  A
C2468      C2484   1.451       .  S
C2469      C2470   1.412       .  A
C2470      C2473   1.451       .  S
C2471      C2474   1.410       .  A
C2471      C2478   1.409       .  A
C2472      N2489   1.157       .  T
C2473      N2491   1.157       .  T
C2474      C2475   1.414       .  A
C2474      C2479   1.450       .  S
C2475      C2476   1.417       .  A
C2475      C2481   1.451       .  S
C2476      C2477   1.414       .  A
C2477      C2478   1.411       .  A
C2477      C2480   1.446       .  S
C2478      C2482   1.451       .  S
C2479      N2486   1.157       .  T
C2480      N2487   1.156       .  T
C2481      N2485   1.157       .  T
C2482      N2488   1.157       .  T
C2483      N2492   1.157       .  T
C2484      N2490   1.157       .  T
C2493      C2494   1.410       .  A
C2493      C2498   1.410       .  A
C2493      C2511   1.450       .  S
C2494      C2499   1.494       .  S
C2494      C2495   1.411       .  A
C2495      C2496   1.410       .  A
C2495      C2500   1.451       .  S
C2496      C2497   1.412       .  A
C2496      C2512   1.450       .  S
C2497      C2498   1.415       .  A
C2498      C2501   1.452       .  S
C2499      C2502   1.411       .  A
C2499      C2506   1.410       .  A
C2500      N2517   1.157       .  T
C2501      N2519   1.157       .  T
C2502      C2503   1.410       .  A
C2502      C2507   1.451       .  S
C2503      C2504   1.413       .  A
C2503      C2509   1.451       .  S
C2504      C2505   1.415       .  A
C2505      C2506   1.410       .  A
C2505      C2508   1.451       .  S
C2506      C2510   1.450       .  S
C2507      N2514   1.157       .  T
C2508      N2515   1.157       .  T
C2509      N2513   1.157       .  T
C2510      N2516   1.157       .  T
C2511      N2520   1.157       .  T
C2512      N2518   1.157       .  T
C2521      C2522   1.412       .  A
C2521      C2526   1.412       .  A
C2521      C2539   1.450       .  S
C2522      C2527   1.496       .  S
C2522      C2523   1.411       .  A
C2523      C2524   1.409       .  A
C2523      C2528   1.451       .  S
C2524      C2525   1.412       .  A
C2524      C2540   1.451       .  S
C2525      C2526   1.413       .  A
C2526      C2529   1.451       .  S
C2527      C2530   1.411       .  A
C2527      C2534   1.411       .  A
C2528      N2545   1.157       .  T
C2529      N2547   1.157       .  T
C2530      C2531   1.410       .  A
C2530      C2535   1.451       .  S
C2531      C2532   1.414       .  A
C2531      C2537   1.451       .  S
C2532      C2533   1.415       .  A
C2533      C2534   1.411       .  A
C2533      C2536   1.451       .  S
C2534      C2538   1.451       .  S
C2535      N2542   1.157       .  T
C2536      N2543   1.157       .  T
C2537      N2541   1.157       .  T
C2538      N2544   1.157       .  T
C2539      N2548   1.157       .  T
C2540      N2546   1.157       .  T
C2549      C2550   1.407       .  A
C2549      C2554   1.413       .  A
C2549      C2567   1.453       .  S
C2550      C2555   1.501       .  S
C2550      C2551   1.408       .  A
C2551      C2552   1.414       .  A
C2551      C2556   1.452       .  S
C2552      C2553   1.427       .  A
C2552      C2568   1.451       .  S
C2553      C2554   1.430       .  A
C2554      C2557   1.452       .  S
C2555      C2558   1.413       .  A
C2555      C2562   1.413       .  A
C2556      N2573   1.157       .  T
C2557      N2575   1.158       .  T
C2558      C2559   1.411       .  A
C2558      C2563   1.450       .  S
C2559      C2560   1.412       .  A
C2559      C2565   1.452       .  S
C2560      C2561   1.412       .  A
C2561      C2562   1.410       .  A
C2561      C2564   1.451       .  S
C2562      C2566   1.451       .  S
C2563      N2570   1.157       .  T
C2564      N2571   1.157       .  T
C2565      N2569   1.157       .  T
C2566      N2572   1.157       .  T
C2567      N2576   1.157       .  T
C2568      N2574   1.157       .  T
C2577      C2578   1.410       .  A
C2577      C2582   1.413       .  A
C2577      C2595   1.451       .  S
C2578      C2583   1.500       .  S
C2578      C2579   1.410       .  A
C2579      C2580   1.413       .  A
C2579      C2584   1.450       .  S
C2580      C2581   1.417       .  A
C2580      C2596   1.451       .  S
C2581      C2582   1.417       .  A
C2582      C2585   1.451       .  S
C2583      C2586   1.410       .  A
C2583      C2590   1.412       .  A
C2584      N2601   1.157       .  T
C2585      N2603   1.158       .  T
C2586      C2587   1.412       .  A
C2586      C2591   1.450       .  S
C2587      C2588   1.416       .  A
C2587      C2593   1.452       .  S
C2588      C2589   1.414       .  A
C2589      C2590   1.413       .  A
C2589      C2592   1.450       .  S
C2590      C2594   1.450       .  S
C2591      N2598   1.157       .  T
C2592      N2599   1.157       .  T
C2593      N2597   1.157       .  T
C2594      N2600   1.157       .  T
C2595      N2604   1.157       .  T
C2596      N2602   1.157       .  T
C2605      C2606   1.411       .  A
C2605      C2610   1.412       .  A
C2605      C2623   1.450       .  S
C2606      C2611   1.498       .  S
C2606      C2607   1.411       .  A
C2607      C2608   1.412       .  A
C2607      C2612   1.450       .  S
C2608      C2609   1.413       .  A
C2608      C2624   1.451       .  S
C2609      C2610   1.414       .  A
C2610      C2613   1.451       .  S
C2611      C2614   1.411       .  A
C2611      C2618   1.411       .  A
C2612      N2629   1.157       .  T
C2613      N2631   1.157       .  T
C2614      C2615   1.412       .  A
C2614      C2619   1.450       .  S
C2615      C2616   1.414       .  A
C2615      C2621   1.451       .  S
C2616      C2617   1.414       .  A
C2617      C2618   1.412       .  A
C2617      C2620   1.451       .  S
C2618      C2622   1.450       .  S
C2619      N2626   1.157       .  T
C2620      N2627   1.157       .  T
C2621      N2625   1.157       .  T
C2622      N2628   1.157       .  T
C2623      N2632   1.157       .  T
C2624      N2630   1.157       .  T
C2633      C2634   1.411       .  A
C2633      C2638   1.414       .  A
C2633      C2651   1.450       .  S
C2634      C2639   1.499       .  S
C2634      C2635   1.409       .  A
C2635      C2636   1.411       .  A
C2635      C2640   1.451       .  S
C2636      C2637   1.417       .  A
C2636      C2652   1.451       .  S
C2637      C2638   1.416       .  A
C2638      C2641   1.451       .  S
C2639      C2642   1.409       .  A
C2639      C2646   1.411       .  A
C2640      N2657   1.157       .  T
C2641      N2659   1.157       .  T
C2642      C2643   1.412       .  A
C2642      C2647   1.451       .  S
C2643      C2644   1.419       .  A
C2643      C2649   1.451       .  S
C2644      C2645   1.417       .  A
C2645      C2646   1.413       .  A
C2645      C2648   1.451       .  S
C2646      C2650   1.450       .  S
C2647      N2654   1.157       .  T
C2648      N2655   1.157       .  T
C2649      N2653   1.157       .  T
C2650      N2656   1.157       .  T
C2651      N2660   1.157       .  T
C2652      N2658   1.158       .  T
C2661      C2662   1.412       .  A
C2661      C2666   1.413       .  A
C2661      C2679   1.450       .  S
C2662      C2667   1.500       .  S
C2662      C2663   1.411       .  A
C2663      C2664   1.412       .  A
C2663      C2668   1.450       .  S
C2664      C2665   1.414       .  A
C2664      C2680   1.451       .  S
C2665      C2666   1.413       .  A
C2666      C2669   1.451       .  S
C2667      C2670   1.411       .  A
C2667      C2674   1.410       .  A
C2668      N2685   1.157       .  T
C2669      N2687   1.157       .  T
C2670      C2671   1.414       .  A
C2670      C2675   1.450       .  S
C2671      C2672   1.416       .  A
C2671      C2677   1.451       .  S
C2672      C2673   1.415       .  A
C2673      C2674   1.412       .  A
C2673      C2676   1.449       .  S
C2674      C2678   1.451       .  S
C2675      N2682   1.157       .  T
C2676      N2683   1.157       .  T
C2677      N2681   1.157       .  T
C2678      N2684   1.157       .  T
C2679      N2688   1.157       .  T
C2680      N2686   1.157       .  T
C2689      C2690   1.411       .  A
C2689      C2694   1.409       .  A
C2689      C2707   1.451       .  S
C2690      C2695   1.497       .  S
C2690      C2691   1.412       .  A
C2691      C2692   1.411       .  A
C2691      C2696   1.451       .  S
C2692      C2693   1.414       .  A
C2692      C2708   1.451       .  S
C2693      C2694   1.414       .  A
C2694      C2697   1.451       .  S
C2695      C2698   1.407       .  A
C2695      C2702   1.407       .  A
C2696      N2713   1.157       .  T
C2697      N2715   1.157       .  T
C2698      C2699   1.412       .  A
C2698      C2703   1.452       .  S
C2699      C2700   1.428       .  A
C2699      C2705   1.452       .  S
C2700      C2701   1.427       .  A
C2701      C2702   1.411       .  A
C2701      C2704   1.451       .  S
C2702      C2706   1.453       .  S
C2703      N2710   1.157       .  T
C2704      N2711   1.158       .  T
C2705      N2709   1.158       .  T
C2706      N2712   1.157       .  T
C2707      N2716   1.157       .  T
C2708      N2714   1.158       .  T
C2717      C2718   1.411       .  A
C2717      C2722   1.414       .  A
C2717      C2735   1.450       .  S
C2718      C2723   1.504       .  S
C2718      C2719   1.412       .  A
C2719      C2720   1.414       .  A
C2719      C2724   1.451       .  S
C2720      C2721   1.416       .  A
C2720      C2736   1.450       .  S
C2721      C2722   1.417       .  A
C2722      C2725   1.451       .  S
C2723      C2726   1.412       .  A
C2723      C2730   1.413       .  A
C2724      N2741   1.157       .  T
C2725      N2743   1.157       .  T
C2726      C2727   1.413       .  A
C2726      C2731   1.450       .  S
C2727      C2728   1.415       .  A
C2727      C2733   1.451       .  S
C2728      C2729   1.413       .  A
C2729      C2730   1.413       .  A
C2729      C2732   1.451       .  S
C2730      C2734   1.450       .  S
C2731      N2738   1.157       .  T
C2732      N2739   1.157       .  T
C2733      N2737   1.157       .  T
C2734      N2740   1.157       .  T
C2735      N2744   1.157       .  T
C2736      N2742   1.157       .  T
C2745      C2746   1.408       .  A
C2745      C2750   1.412       .  A
C2745      C2763   1.451       .  S
C2746      C2751   1.495       .  S
C2746      C2747   1.408       .  A
C2747      C2748   1.410       .  A
C2747      C2752   1.452       .  S
C2748      C2749   1.418       .  A
C2748      C2764   1.447       .  S
C2749      C2750   1.421       .  A
C2750      C2753   1.452       .  S
C2751      C2754   1.409       .  A
C2751      C2758   1.411       .  A
C2752      N2769   1.157       .  T
C2753      N2771   1.157       .  T
C2754      C2755   1.410       .  A
C2754      C2759   1.451       .  S
C2755      C2756   1.416       .  A
C2755      C2761   1.452       .  S
C2756      C2757   1.415       .  A
C2757      C2758   1.410       .  A
C2757      C2760   1.451       .  S
C2758      C2762   1.451       .  S
C2759      N2766   1.157       .  T
C2760      N2767   1.157       .  T
C2761      N2765   1.158       .  T
C2762      N2768   1.157       .  T
C2763      N2772   1.157       .  T
C2764      N2770   1.156       .  T
C2773      C2774   1.409       .  A
C2773      C2778   1.411       .  A
C2773      C2791   1.452       .  S
C2774      C2779   1.496       .  S
C2774      C2775   1.409       .  A
C2775      C2776   1.412       .  A
C2775      C2780   1.451       .  S
C2776      C2777   1.419       .  A
C2776      C2792   1.452       .  S
C2777      C2778   1.417       .  A
C2778      C2781   1.447       .  S
C2779      C2782   1.411       .  A
C2779      C2786   1.411       .  A
C2780      N2797   1.157       .  T
C2781      N2799   1.156       .  T
C2782      C2783   1.412       .  A
C2782      C2787   1.451       .  S
C2783      C2784   1.415       .  A
C2783      C2789   1.451       .  S
C2784      C2785   1.414       .  A
C2785      C2786   1.409       .  A
C2785      C2788   1.452       .  S
C2786      C2790   1.451       .  S
C2787      N2794   1.157       .  T
C2788      N2795   1.157       .  T
C2789      N2793   1.158       .  T
C2790      N2796   1.157       .  T
C2791      N2800   1.157       .  T
C2792      N2798   1.157       .  T
C2801      C2802   1.412       .  A
C2801      C2806   1.413       .  A
C2801      C2819   1.450       .  S
C2802      C2807   1.501       .  S
C2802      C2803   1.412       .  A
C2803      C2804   1.413       .  A
C2803      C2808   1.450       .  S
C2804      C2805   1.414       .  A
C2804      C2820   1.451       .  S
C2805      C2806   1.414       .  A
C2806      C2809   1.451       .  S
C2807      C2810   1.413       .  A
C2807      C2814   1.412       .  A
C2808      N2825   1.157       .  T
C2809      N2827   1.157       .  T
C2810      C2811   1.413       .  A
C2810      C2815   1.450       .  S
C2811      C2812   1.412       .  A
C2811      C2817   1.451       .  S
C2812      C2813   1.413       .  A
C2813      C2814   1.412       .  A
C2813      C2816   1.451       .  S
C2814      C2818   1.450       .  S
C2815      N2822   1.157       .  T
C2816      N2823   1.157       .  T
C2817      N2821   1.157       .  T
C2818      N2824   1.157       .  T
C2819      N2828   1.157       .  T
C2820      N2826   1.157       .  T
C2829      C2830   1.412       .  A
C2829      C2834   1.413       .  A
C2829      C2847   1.450       .  S
C2830      C2835   1.501       .  S
C2830      C2831   1.412       .  A
C2831      C2832   1.411       .  A
C2831      C2836   1.451       .  S
C2832      C2833   1.414       .  A
C2832      C2848   1.451       .  S
C2833      C2834   1.414       .  A
C2834      C2837   1.451       .  S
C2835      C2838   1.408       .  A
C2835      C2842   1.409       .  A
C2836      N2853   1.157       .  T
C2837      N2855   1.157       .  T
C2838      C2839   1.411       .  A
C2838      C2843   1.452       .  S
C2839      C2840   1.424       .  A
C2839      C2845   1.451       .  S
C2840      C2841   1.425       .  A
C2841      C2842   1.415       .  A
C2841      C2844   1.451       .  S
C2842      C2846   1.451       .  S
C2843      N2850   1.157       .  T
C2844      N2851   1.158       .  T
C2845      N2849   1.157       .  T
C2846      N2852   1.157       .  T
C2847      N2856   1.157       .  T
C2848      N2854   1.157       .  T
C2857      C2858   1.410       .  A
C2857      C2862   1.411       .  A
C2857      C2875   1.451       .  S
C2858      C2863   1.497       .  S
C2858      C2859   1.411       .  A
C2859      C2860   1.412       .  A
C2859      C2864   1.450       .  S
C2860      C2861   1.415       .  A
C2860      C2876   1.451       .  S
C2861      C2862   1.415       .  A
C2862      C2865   1.451       .  S
C2863      C2866   1.411       .  A
C2863      C2870   1.411       .  A
C2864      N2881   1.157       .  T
C2865      N2883   1.158       .  T
C2866      C2867   1.411       .  A
C2866      C2871   1.450       .  S
C2867      C2868   1.413       .  A
C2867      C2873   1.451       .  S
C2868      C2869   1.414       .  A
C2869      C2870   1.412       .  A
C2869      C2872   1.451       .  S
C2870      C2874   1.450       .  S
C2871      N2878   1.157       .  T
C2872      N2879   1.158       .  T
C2873      N2877   1.157       .  T
C2874      N2880   1.157       .  T
C2875      N2884   1.157       .  T
C2876      N2882   1.157       .  T
C2885      C2886   1.410       .  A
C2885      C2890   1.409       .  A
C2885      C2903   1.450       .  S
C2886      C2891   1.494       .  S
C2886      C2887   1.411       .  A
C2887      C2888   1.410       .  A
C2887      C2892   1.450       .  S
C2888      C2889   1.413       .  A
C2888      C2904   1.451       .  S
C2889      C2890   1.413       .  A
C2890      C2893   1.451       .  S
C2891      C2894   1.411       .  A
C2891      C2898   1.411       .  A
C2892      N2909   1.157       .  T
C2893      N2911   1.157       .  T
C2894      C2895   1.410       .  A
C2894      C2899   1.451       .  S
C2895      C2896   1.413       .  A
C2895      C2901   1.451       .  S
C2896      C2897   1.413       .  A
C2897      C2898   1.410       .  A
C2897      C2900   1.451       .  S
C2898      C2902   1.450       .  S
C2899      N2906   1.157       .  T
C2900      N2907   1.157       .  T
C2901      N2905   1.157       .  T
C2902      N2908   1.157       .  T
C2903      N2912   1.157       .  T
C2904      N2910   1.157       .  T
C2913      C2914   1.408       .  A
C2913      C2918   1.411       .  A
C2913      C2931   1.451       .  S
C2914      C2919   1.497       .  S
C2914      C2915   1.409       .  A
C2915      C2916   1.413       .  A
C2915      C2920   1.451       .  S
C2916      C2917   1.420       .  A
C2916      C2932   1.451       .  S
C2917      C2918   1.420       .  A
C2918      C2921   1.451       .  S
C2919      C2922   1.410       .  A
C2919      C2926   1.410       .  A
C2920      N2937   1.157       .  T
C2921      N2939   1.157       .  T
C2922      C2923   1.411       .  A
C2922      C2927   1.451       .  S
C2923      C2924   1.415       .  A
C2923      C2929   1.448       .  S
C2924      C2925   1.416       .  A
C2925      C2926   1.412       .  A
C2925      C2928   1.452       .  S
C2926      C2930   1.450       .  S
C2927      N2934   1.157       .  T
C2928      N2935   1.157       .  T
C2929      N2933   1.157       .  T
C2930      N2936   1.157       .  T
C2931      N2940   1.157       .  T
C2932      N2938   1.157       .  T
C2941      C2942   1.410       .  A
C2941      C2946   1.410       .  A
C2941      C2959   1.450       .  S
C2942      C2947   1.496       .  S
C2942      C2943   1.412       .  A
C2943      C2944   1.411       .  A
C2943      C2948   1.450       .  S
C2944      C2945   1.412       .  A
C2944      C2960   1.451       .  S
C2945      C2946   1.414       .  A
C2946      C2949   1.452       .  S
C2947      C2950   1.411       .  A
C2947      C2954   1.410       .  A
C2948      N2965   1.157       .  T
C2949      N2967   1.157       .  T
C2950      C2951   1.411       .  A
C2950      C2955   1.450       .  S
C2951      C2952   1.413       .  A
C2951      C2957   1.451       .  S
C2952      C2953   1.414       .  A
C2953      C2954   1.411       .  A
C2953      C2956   1.451       .  S
C2954      C2958   1.451       .  S
C2955      N2962   1.157       .  T
C2956      N2963   1.157       .  T
C2957      N2961   1.157       .  T
C2958      N2964   1.157       .  T
C2959      N2968   1.157       .  T
C2960      N2966   1.157       .  T
C2969      C2970   1.411       .  A
C2969      C2974   1.413       .  A
C2969      C2987   1.451       .  S
C2970      C2975   1.499       .  S
C2970      C2971   1.411       .  A
C2971      C2972   1.411       .  A
C2971      C2976   1.450       .  S
C2972      C2973   1.415       .  A
C2972      C2988   1.451       .  S
C2973      C2974   1.415       .  A
C2974      C2977   1.451       .  S
C2975      C2978   1.410       .  A
C2975      C2982   1.410       .  A
C2976      N2993   1.158       .  T
C2977      N2995   1.158       .  T
C2978      C2979   1.413       .  A
C2978      C2983   1.450       .  S
C2979      C2980   1.418       .  A
C2979      C2985   1.451       .  S
C2980      C2981   1.418       .  A
C2981      C2982   1.411       .  A
C2981      C2984   1.450       .  S
C2982      C2986   1.451       .  S
C2983      N2990   1.157       .  T
C2984      N2991   1.157       .  T
C2985      N2989   1.157       .  T
C2986      N2992   1.157       .  T
C2987      N2996   1.157       .  T
C2988      N2994   1.157       .  T
C2997      C2998   1.412       .  A
C2997      C3002   1.409       .  A
C2997      C3015   1.450       .  S
C2998      C3003   1.496       .  S
C2998      C2999   1.412       .  A
C2999      C3000   1.411       .  A
C2999      C3004   1.450       .  S
C3000      C3001   1.412       .  A
C3000      C3016   1.451       .  S
C3001      C3002   1.411       .  A
C3002      C3005   1.451       .  S
C3003      C3006   1.406       .  A
C3003      C3010   1.406       .  A
C3004      N3021   1.157       .  T
C3005      N3023   1.157       .  T
C3006      C3007   1.412       .  A
C3006      C3011   1.453       .  S
C3007      C3008   1.428       .  A
C3007      C3013   1.451       .  S
C3008      C3009   1.428       .  A
C3009      C3010   1.412       .  A
C3009      C3012   1.451       .  S
C3010      C3014   1.453       .  S
C3011      N3018   1.157       .  T
C3012      N3019   1.158       .  T
C3013      N3017   1.158       .  T
C3014      N3020   1.157       .  T
C3015      N3024   1.157       .  T
C3016      N3022   1.157       .  T
C3025      C3026   1.411       .  A
C3025      C3030   1.411       .  A
C3025      C3043   1.451       .  S
C3026      C3031   1.497       .  S
C3026      C3027   1.411       .  A
C3027      C3028   1.412       .  A
C3027      C3032   1.450       .  S
C3028      C3029   1.415       .  A
C3028      C3044   1.452       .  S
C3029      C3030   1.413       .  A
C3030      C3033   1.450       .  S
C3031      C3034   1.411       .  A
C3031      C3038   1.411       .  A
C3032      N3049   1.157       .  T
C3033      N3051   1.157       .  T
C3034      C3035   1.413       .  A
C3034      C3039   1.450       .  S
C3035      C3036   1.415       .  A
C3035      C3041   1.451       .  S
C3036      C3037   1.414       .  A
C3037      C3038   1.410       .  A
C3037      C3040   1.451       .  S
C3038      C3042   1.451       .  S
C3039      N3046   1.157       .  T
C3040      N3047   1.157       .  T
C3041      N3045   1.158       .  T
C3042      N3048   1.157       .  T
C3043      N3052   1.157       .  T
C3044      N3050   1.157       .  T
C3053      C3054   1.410       .  A
C3053      C3058   1.412       .  A
C3053      C3071   1.450       .  S
C3054      C3059   1.496       .  S
C3054      C3055   1.410       .  A
C3055      C3056   1.411       .  A
C3055      C3060   1.451       .  S
C3056      C3057   1.415       .  A
C3056      C3072   1.451       .  S
C3057      C3058   1.415       .  A
C3058      C3061   1.451       .  S
C3059      C3062   1.410       .  A
C3059      C3066   1.411       .  A
C3060      N3077   1.157       .  T
C3061      N3079   1.157       .  T
C3062      C3063   1.411       .  A
C3062      C3067   1.450       .  S
C3063      C3064   1.415       .  A
C3063      C3069   1.451       .  S
C3064      C3065   1.414       .  A
C3065      C3066   1.411       .  A
C3065      C3068   1.451       .  S
C3066      C3070   1.450       .  S
C3067      N3074   1.157       .  T
C3068      N3075   1.157       .  T
C3069      N3073   1.158       .  T
C3070      N3076   1.157       .  T
C3071      N3080   1.157       .  T
C3072      N3078   1.157       .  T
C3081      C3082   1.411       .  A
C3081      C3086   1.412       .  A
C3081      C3099   1.450       .  S
C3082      C3087   1.496       .  S
C3082      C3083   1.410       .  A
C3083      C3084   1.410       .  A
C3083      C3088   1.451       .  S
C3084      C3085   1.414       .  A
C3084      C3100   1.452       .  S
C3085      C3086   1.413       .  A
C3086      C3089   1.451       .  S
C3087      C3090   1.410       .  A
C3087      C3094   1.411       .  A
C3088      N3105   1.157       .  T
C3089      N3107   1.157       .  T
C3090      C3091   1.411       .  A
C3090      C3095   1.451       .  S
C3091      C3092   1.414       .  A
C3091      C3097   1.449       .  S
C3092      C3093   1.415       .  A
C3093      C3094   1.412       .  A
C3093      C3096   1.451       .  S
C3094      C3098   1.450       .  S
C3095      N3102   1.157       .  T
C3096      N3103   1.157       .  T
C3097      N3101   1.157       .  T
C3098      N3104   1.157       .  T
C3099      N3108   1.157       .  T
C3100      N3106   1.157       .  T
C3109      C3110   1.409       .  A
C3109      C3114   1.409       .  A
C3109      C3127   1.451       .  S
C3110      C3115   1.493       .  S
C3110      C3111   1.410       .  A
C3111      C3112   1.410       .  A
C3111      C3116   1.450       .  S
C3112      C3113   1.414       .  A
C3112      C3128   1.451       .  S
C3113      C3114   1.415       .  A
C3114      C3117   1.451       .  S
C3115      C3118   1.410       .  A
C3115      C3122   1.410       .  A
C3116      N3133   1.157       .  T
C3117      N3135   1.158       .  T
C3118      C3119   1.409       .  A
C3118      C3123   1.451       .  S
C3119      C3120   1.414       .  A
C3119      C3125   1.452       .  S
C3120      C3121   1.414       .  A
C3121      C3122   1.410       .  A
C3121      C3124   1.451       .  S
C3122      C3126   1.450       .  S
C3123      N3130   1.157       .  T
C3124      N3131   1.158       .  T
C3125      N3129   1.157       .  T
C3126      N3132   1.157       .  T
C3127      N3136   1.157       .  T
C3128      N3134   1.157       .  T
C3137      C3138   1.411       .  A
C3137      C3142   1.411       .  A
C3137      C3155   1.451       .  S
C3138      C3143   1.502   1_545  S
C3138      C3139   1.413       .  A
C3139      C3140   1.414       .  A
C3139      C3144   1.450       .  S
C3140      C3141   1.414       .  A
C3140      C3156   1.451       .  S
C3141      C3142   1.413       .  A
C3142      C3145   1.449       .  S
C3143      C3146   1.407       .  A
C3143      C3150   1.407       .  A
C3144      N3161   1.157       .  T
C3145      N3163   1.157       .  T
C3146      C3147   1.414       .  A
C3146      C3151   1.452       .  S
C3147      C3148   1.428       .  A
C3147      C3153   1.451       .  S
C3148      C3149   1.428       .  A
C3149      C3150   1.414       .  A
C3149      C3152   1.451       .  S
C3150      C3154   1.452       .  S
C3151      N3158   1.157   1_565  T
C3152      N3159   1.158       .  T
C3153      N3157   1.157       .  T
C3154      N3160   1.157   1_565  T
C3155      N3164   1.157       .  T
C3156      N3162   1.157       .  T
C3165      C3166   1.412       .  A
C3165      C3170   1.412       .  A
C3165      C3183   1.450       .  S
C3166      C3171   1.499       .  S
C3166      C3167   1.412       .  A
C3167      C3168   1.412       .  A
C3167      C3172   1.450       .  S
C3168      C3169   1.412       .  A
C3168      C3184   1.451       .  S
C3169      C3170   1.413       .  A
C3170      C3173   1.451       .  S
C3171      C3174   1.412       .  A
C3171      C3178   1.411       .  A
C3172      N3189   1.157       .  T
C3173      N3191   1.157       .  T
C3174      C3175   1.412       .  A
C3174      C3179   1.450       .  S
C3175      C3176   1.413       .  A
C3175      C3181   1.451       .  S
C3176      C3177   1.414       .  A
C3177      C3178   1.412       .  A
C3177      C3180   1.451       .  S
C3178      C3182   1.450       .  S
C3179      N3186   1.157       .  T
C3180      N3187   1.157       .  T
C3181      N3185   1.157       .  T
C3182      N3188   1.157       .  T
C3183      N3192   1.157       .  T
C3184      N3190   1.157       .  T
C3193      C3194   1.411       .  A
C3193      C3198   1.413       .  A
C3193      C3211   1.450       .  S
C3194      C3199   1.500       .  S
C3194      C3195   1.411       .  A
C3195      C3196   1.413       .  A
C3195      C3200   1.450       .  S
C3196      C3197   1.417       .  A
C3196      C3212   1.451       .  S
C3197      C3198   1.415       .  A
C3198      C3201   1.451       .  S
C3199      C3202   1.411       .  A
C3199      C3206   1.411       .  A
C3200      N3217   1.157       .  T
C3201      N3219   1.157       .  T
C3202      C3203   1.412       .  A
C3202      C3207   1.450       .  S
C3203      C3204   1.415       .  A
C3203      C3209   1.451       .  S
C3204      C3205   1.416       .  A
C3205      C3206   1.413       .  A
C3205      C3208   1.451       .  S
C3206      C3210   1.450       .  S
C3207      N3214   1.157       .  T
C3208      N3215   1.157       .  T
C3209      N3213   1.157       .  T
C3210      N3216   1.157       .  T
C3211      N3220   1.157       .  T
C3212      N3218   1.157       .  T
C3221      C3222   1.411       .  A
C3221      C3226   1.411       .  A
C3221      C3239   1.451       .  S
C3222      C3227   1.497   1_455  S
C3222      C3223   1.411       .  A
C3223      C3224   1.412       .  A
C3223      C3228   1.451       .  S
C3224      C3225   1.416       .  A
C3224      C3240   1.451       .  S
C3225      C3226   1.415       .  A
C3226      C3229   1.451       .  S
C3227      C3230   1.410       .  A
C3227      C3234   1.411       .  A
C3228      N3245   1.157   1_455  T
C3229      N3247   1.157       .  T
C3230      C3231   1.411       .  A
C3230      C3235   1.451       .  S
C3231      C3232   1.416       .  A
C3231      C3237   1.452       .  S
C3232      C3233   1.414       .  A
C3233      C3234   1.412       .  A
C3233      C3236   1.450       .  S
C3234      C3238   1.451       .  S
C3235      N3242   1.157       .  T
C3236      N3243   1.157       .  T
C3237      N3241   1.157       .  T
C3238      N3244   1.157       .  T
C3239      N3248   1.157   1_455  T
C3240      N3246   1.157       .  T
C3249      C3250   1.410       .  A
C3249      C3254   1.410       .  A
C3249      C3267   1.451       .  S
C3250      C3255   1.497       .  S
C3250      C3251   1.410       .  A
C3251      C3252   1.412       .  A
C3251      C3256   1.451       .  S
C3252      C3253   1.416       .  A
C3252      C3268   1.451       .  S
C3253      C3254   1.416       .  A
C3254      C3257   1.451       .  S
C3255      C3258   1.411       .  A
C3255      C3262   1.411       .  A
C3256      N3273   1.157       .  T
C3257      N3275   1.157       .  T
C3258      C3259   1.412       .  A
C3258      C3263   1.450       .  S
C3259      C3260   1.414       .  A
C3259      C3265   1.451       .  S
C3260      C3261   1.414       .  A
C3261      C3262   1.410       .  A
C3261      C3264   1.451       .  S
C3262      C3266   1.451       .  S
C3263      N3270   1.157       .  T
C3264      N3271   1.158       .  T
C3265      N3269   1.157       .  T
C3266      N3272   1.157       .  T
C3267      N3276   1.157       .  T
C3268      N3274   1.158       .  T
C3277      C3278   1.410       .  A
C3277      C3282   1.413       .  A
C3277      C3295   1.451       .  S
C3278      C3283   1.500       .  S
C3278      C3279   1.410       .  A
C3279      C3280   1.412       .  A
C3279      C3284   1.451       .  S
C3280      C3281   1.417       .  A
C3280      C3296   1.451       .  S
C3281      C3282   1.418       .  A
C3282      C3285   1.450       .  S
C3283      C3286   1.411       .  A
C3283      C3290   1.411       .  A
C3284      N3301   1.157       .  T
C3285      N3303   1.157       .  T
C3286      C3287   1.413       .  A
C3286      C3291   1.450       .  S
C3287      C3288   1.415       .  A
C3287      C3293   1.451       .  S
C3288      C3289   1.415       .  A
C3289      C3290   1.412       .  A
C3289      C3292   1.451       .  S
C3290      C3294   1.450       .  S
C3291      N3298   1.157       .  T
C3292      N3299   1.157       .  T
C3293      N3297   1.157       .  T
C3294      N3300   1.157       .  T
C3295      N3304   1.157       .  T
C3296      N3302   1.157       .  T
C3305      C3306   1.411       .  A
C3305      C3310   1.412       .  A
C3305      C3323   1.450       .  S
C3306      C3311   1.497   1_455  S
C3306      C3307   1.411       .  A
C3307      C3308   1.411       .  A
C3307      C3312   1.450       .  S
C3308      C3309   1.412       .  A
C3308      C3324   1.451       .  S
C3309      C3310   1.413       .  A
C3310      C3313   1.451       .  S
C3311      C3314   1.406       .  A
C3311      C3318   1.406       .  A
C3312      N3329   1.157       .  T
C3313      N3331   1.158       .  T
C3314      C3315   1.414       .  A
C3314      C3319   1.452       .  S
C3315      C3316   1.428       .  A
C3315      C3321   1.451       .  S
C3316      C3317   1.427       .  A
C3317      C3318   1.411       .  A
C3317      C3320   1.452       .  S
C3318      C3322   1.452       .  S
C3319      N3326   1.157       .  T
C3320      N3327   1.157       .  T
C3321      N3325   1.158       .  T
C3322      N3328   1.157       .  T
C3323      N3332   1.157       .  T
C3324      N3330   1.157       .  T
C3333      C3334   1.413       .  A
C3333      C3338   1.412       .  A
C3333      C3351   1.451       .  S
C3334      C3339   1.504   1_545  S
C3334      C3335   1.413       .  A
C3335      C3336   1.413       .  A
C3335      C3340   1.451       .  S
C3336      C3337   1.415       .  A
C3336      C3352   1.451       .  S
C3337      C3338   1.416       .  A
C3338      C3341   1.451       .  S
C3339      C3342   1.414       .  A
C3339      C3346   1.414       .  A
C3340      N3357   1.157       .  T
C3341      N3359   1.158       .  T
C3342      C3343   1.412       .  A
C3342      C3347   1.451       .  S
C3343      C3344   1.412       .  A
C3343      C3349   1.451       .  S
C3344      C3345   1.413       .  A
C3345      C3346   1.412       .  A
C3345      C3348   1.452       .  S
C3346      C3350   1.450       .  S
C3347      N3354   1.157       .  T
C3348      N3355   1.157       .  T
C3349      N3353   1.157       .  T
C3350      N3356   1.157       .  T
C3351      N3360   1.157       .  T
C3352      N3358   1.157       .  T
