geometry optimzed in LAMMPS
_audit_creation_date              2020-11-30 
_audit_creation_method            'lammps2cif' 
_symmetry_space_group_name_H-M    'P1' 
_symmetry_Int_Tables_number       1 
_symmetry_cell_setting            triclinic 
loop_ 
_symmetry_equiv_pos_as_xyz 
  x,y,z 
_cell_length_a                    70.5446888 
_cell_length_b                    70.79033605644454 
_cell_length_c                    42.556993432877235 
_cell_angle_alpha                 90.88916154276409 
_cell_angle_beta                  89.63058564215163 
_cell_angle_gamma                 119.89229267780414 
loop_ 
_atom_site_label 
_atom_site_type_symbol 
_atom_site_fract_x 
_atom_site_fract_y 
_atom_site_fract_z 
_atom_site_charge 
O1          O  0.61291148  0.42298107  0.49217407    -0.88000
C2          C  0.56962346  0.39792254  0.42007467     0.88000
Mg3        Mg  0.60369329  0.41844370  0.54008823     1.58100
O4          O  0.59138195  0.45413101  0.43031523    -0.87800
O5          O  0.63076018  0.45075607  0.46085986    -0.75100
C6          C  0.52536612  0.44420683  0.55265198     0.93000
O7          O  0.56612074  0.37928509  0.48991807    -0.74900
O8          O  0.53241436  0.43255283  0.56465245    -0.82400
Mg9        Mg  0.59853794  0.39433132  0.46274173     1.58000
C10         C  0.54956841  0.48005546  0.43013211     0.93000
O11         O  0.63008095  0.40600404  0.43575243    -0.80700
H12         H  0.61685980  0.48445342  0.43123318    -0.06000
C13         C  0.53210618  0.41640015  0.47307783     0.87900
O14         O  0.60668272  0.45252210  0.54197262    -0.75200
O15         O  0.58771399  0.41019912  0.43189936    -0.88000
O16         O  0.55485688  0.46878397  0.41205170    -0.80800
C17         C  0.58165780  0.43562848  0.34960737     0.93100
C18         C  0.64072741  0.41741624  0.41245317     0.92900
Mg19       Mg  0.56249415  0.46313750  0.49371049     1.58000
O20         O  0.53181788  0.45299593  0.52574690    -0.80700
O21         O  0.59403558  0.47865539  0.46464690    -0.74900
O22         O  0.59617777  0.43444702  0.36572378    -0.80800
O23         O  0.60901785  0.37612789  0.49437032    -0.82500
O24         O  0.57025004  0.42561725  0.59392947    -0.80800
C25         C  0.60126168  0.47287952  0.44121454     0.87400
O26         O  0.57557784  0.44850443  0.52500988    -0.87900
O27         O  0.54820300  0.43372520  0.46495723    -0.88000
O28         O  0.53097194  0.40823958  0.49997282    -0.75100
Mg29       Mg  0.61183969  0.44152803  0.41443741     1.58000
O30         O  0.56734482  0.43940247  0.36237547    -0.82500
H31         H  0.64147504  0.44895376  0.50417911    -0.06200
O32         O  0.57004806  0.40334222  0.52618130    -0.87700
H33         H  0.54310932  0.37405127  0.52279410    -0.06000
H34         H  0.60006959  0.47731805  0.53975721    -0.06200
C35         C  0.55921722  0.38509712  0.51375684     0.87300
C36         C  0.62899680  0.44093267  0.48637139     0.87900
C37         C  0.59416817  0.46014542  0.53585193     0.88000
H38         H  0.51878458  0.40774082  0.45664445    -0.06200
O39         O  0.55610851  0.40430297  0.41434383    -0.75200
Mg40       Mg  0.55211935  0.41794278  0.54516252     1.58000
H41         H  0.56482296  0.38103289  0.41572684    -0.06200
C42         C  0.60717237  0.37336530  0.52387300     0.93000
O43         O  0.59506847  0.41493800  0.59111434    -0.82400
C44         C  0.58385911  0.42119318  0.60694081     0.93000
O45         O  0.63511495  0.42953724  0.39808280    -0.82400
Mg46       Mg  0.55755890  0.43729212  0.41534674     1.58200
O47         O  0.60327280  0.38548555  0.54211385    -0.80800
O48         O  0.54950868  0.47873625  0.45999184    -0.82500
O49         O  0.60048271  0.42036507  0.99570421    -0.88000
C50         C  0.56445862  0.40119347  0.91483174     0.88000
Mg51       Mg  0.58669129  0.41302226  0.04226518     1.58100
O52         O  0.58754164  0.45679869  0.93269606    -0.87800
O53         O  0.62234948  0.44876651  0.96735112    -0.75100
C54         C  0.50785820  0.43840950  0.03650512     0.93000
O55         O  0.55420992  0.37770289  0.98268461    -0.74900
O56         O  0.51229891  0.42535916  0.05063541    -0.82400
Mg57       Mg  0.58891471  0.39390196  0.96228622     1.58000
C58         C  0.54885760  0.48580704  0.92903051     0.93000
O59         O  0.62322187  0.40678750  0.94185044    -0.80700
H60         H  0.61384442  0.48563892  0.94252691    -0.06000
C61         C  0.52426111  0.41762038  0.96136742     0.87900
O62         O  0.59003033  0.44693499  0.04638976    -0.75200
O63         O  0.58154221  0.41196422  0.92993249    -0.88000
O64         O  0.55493815  0.47510073  0.91133367    -0.80800
C65         C  0.58313275  0.44542869  0.85008809     0.93100
C66         C  0.63553559  0.41847682  0.91976867     0.92900
Mg67       Mg  0.55319249  0.46220316  0.99147880     1.58000
O68         O  0.51935552  0.44997944  0.01371646    -0.80700
O69         O  0.58776496  0.47831475  0.97053026    -0.74900
O70         O  0.59586548  0.44062116  0.86502271    -0.80800
O71         O  0.59538117  0.37330551  0.99493541    -0.82500
O72         O  0.54663369  0.41587012  0.08682431    -0.80800
C73         C  0.59698488  0.47409451  0.94791844     0.87400
O74         O  0.56099158  0.44410303  0.02345171    -0.87900
O75         O  0.54140561  0.43525240  0.95870894    -0.88000
O76         O  0.51952503  0.40661507  0.98640890    -0.75100
Mg77       Mg  0.60772339  0.44357278  0.91745799     1.58000
O78         O  0.56944733  0.44934520  0.86402159    -0.82500
H79         H  0.62856213  0.44483022  0.01256283    -0.06200
O80         O  0.55470061  0.39905203  0.02106774    -0.87700
H81         H  0.52834303  0.37025106  0.01120966    -0.06000
H82         H  0.58323033  0.47158443  0.04486167    -0.06200
C83         C  0.54517934  0.38180098  0.00570158     0.87300
C84         C  0.61758272  0.43803596  0.99272210     0.87900
C85         C  0.57803606  0.45482077  0.03872962     0.88000
H86         H  0.51330877  0.41105473  0.94145718    -0.06200
O87         O  0.55225515  0.40893054  0.90780259    -0.75200
Mg88       Mg  0.53470646  0.41229504  0.03572673     1.58000
H89         H  0.55938746  0.38449827  0.90842275    -0.06200
C90         C  0.59053790  0.36835386  0.02357217     0.93000
O91         O  0.57312983  0.40770398  0.09279646    -0.82400
C92         C  0.55923248  0.41248042  0.10427606     0.93000
O93         O  0.63087448  0.43065284  0.90353657    -0.82400
Mg94       Mg  0.55531154  0.44263141  0.91258934     1.58200
O95         O  0.58538838  0.37945993  0.04210340    -0.80800
O96         O  0.54564452  0.48222464  0.95827897    -0.82500
O97         O  0.40947085  0.58937209  0.19907664    -0.88000
C98         C  0.39051307  0.55649412  0.28219465     0.88000
Mg99       Mg  0.40284967  0.57397945  0.15355647     1.58100
O100        O  0.44670386  0.57957887  0.26808317    -0.87800
O101        O  0.43830020  0.61195493  0.22707097    -0.75100
C102        C  0.43250761  0.49881602  0.16938871     0.93000
O103        O  0.36765303  0.54262547  0.21273407    -0.74900
O104        O  0.42001972  0.50302120  0.15312333    -0.82400
Mg105      Mg  0.38261088  0.57772271  0.23136498     1.58000
C106        C  0.47633102  0.54192811  0.27976930     0.93000
O107        O  0.39330422  0.61177761  0.25070096    -0.80700
H108        H  0.47588209  0.60573556  0.26005856    -0.06000
C109        C  0.40853912  0.51581630  0.24160641     0.87900
O110        O  0.43756684  0.57831157  0.15287982    -0.75200
O111        O  0.40128093  0.57246864  0.26546667    -0.88000
O112        O  0.46529875  0.54824785  0.29640312    -0.80800
C113        C  0.43251353  0.57914594  0.34920285     0.93100
C114        C  0.40527476  0.62515899  0.27195554     0.92900
Mg115      Mg  0.45362816  0.54434055  0.21401126     1.58000
O116        O  0.44235374  0.50994499  0.19381374    -0.80700
O117        O  0.46944904  0.57932210  0.23311786    -0.74900
O118        O  0.42877492  0.59052309  0.32992910    -0.80800
O119        O  0.36194956  0.58236092  0.19646443    -0.82500
O120        O  0.40949856  0.53486946  0.11255299    -0.80800
C121        C  0.46453565  0.58881809  0.25449871     0.87400
O122        O  0.43579163  0.55106189  0.17911219    -0.87900
O123        O  0.42608756  0.53302293  0.24539648    -0.88000
O124        O  0.39857881  0.51041812  0.21527351    -0.75100
Mg125      Mg  0.43264577  0.59966402  0.27777654     1.58000
O126        O  0.43740857  0.56481623  0.34005845    -0.82500
H127        H  0.43419612  0.61649280  0.18123560    -0.06200
O128        O  0.38978064  0.54293043  0.17611081    -0.87700
H129        H  0.36141405  0.51622987  0.18587687    -0.06000
H130        H  0.46334046  0.57337298  0.15852941    -0.06200
C131        C  0.37242411  0.53331194  0.19086189     0.87300
C132        C  0.42732048  0.60640314  0.20165375     0.87900
C133        C  0.44624796  0.56760831  0.16322183     0.88000
H134        H  0.40120786  0.50525289  0.26145928    -0.06200
O135        O  0.39843904  0.54514719  0.29237865    -0.75200
Mg136      Mg  0.40489936  0.52404948  0.16481026     1.58000
H137        H  0.37367823  0.55162153  0.28737570    -0.06200
C138        C  0.35723429  0.57723699  0.16774065     0.93000
O139        O  0.39827156  0.55884947  0.10464648    -0.82400
C140        C  0.40486189  0.54613039  0.09420529     0.93000
O141        O  0.41903152  0.62239615  0.28753762    -0.82400
Mg142      Mg  0.43244043  0.54851215  0.29139604     1.58200
O143        O  0.36843090  0.57171802  0.14996400    -0.80800
O144        O  0.47315595  0.53823094  0.25037803    -0.82500
O145        O  0.41908387  0.60588018  0.70488260    -0.88000
C146        C  0.39335363  0.56472738  0.77840279     0.88000
Mg147      Mg  0.41508114  0.59434333  0.65723227     1.58100
O148        O  0.45002268  0.58760447  0.77189389    -0.87800
O149        O  0.44595456  0.62498207  0.73802669    -0.75100
C150        C  0.44188281  0.51692241  0.65749728     0.93000
O151        O  0.37467850  0.55963910  0.70806871    -0.74900
O152        O  0.42857101  0.52178018  0.64507503    -0.82400
Mg153      Mg  0.38995998  0.59304540  0.73308764     1.58000
C154        C  0.47926606  0.54938861  0.77749024     0.93000
O155        O  0.40182637  0.62589992  0.75824195    -0.80700
H156        H  0.47975724  0.61398396  0.77001221    -0.06000
C157        C  0.41403158  0.52658187  0.73369530     0.87900
O158        O  0.44910649  0.59743870  0.65815919    -0.75200
O159        O  0.40526324  0.58282872  0.76682750    -0.88000
O160        O  0.46685175  0.55388446  0.79428475    -0.80800
C161        C  0.43015701  0.57874180  0.85168569     0.93100
C162        C  0.41248308  0.63650748  0.78255541     0.92900
Mg163      Mg  0.46076129  0.55748489  0.71212143     1.58000
O164        O  0.45196746  0.52592340  0.68307811    -0.80700
O165        O  0.47494835  0.59015457  0.73862495    -0.74900
O166        O  0.42818510  0.59259721  0.83520539    -0.80800
O167        O  0.37259373  0.60273657  0.69773783    -0.82500
O168        O  0.42108765  0.55703220  0.61202856    -0.80800
C169        C  0.46870265  0.59778251  0.76101620     0.87400
O170        O  0.44485229  0.56747756  0.67905520    -0.87900
O171        O  0.43135717  0.54335759  0.74023284    -0.88000
O172        O  0.40470374  0.52382153  0.70724544    -0.75100
Mg173      Mg  0.43625240  0.60743881  0.78546133     1.58000
O174        O  0.43556707  0.56549145  0.83954089    -0.82500
H175        H  0.44531714  0.63411806  0.69326661    -0.06200
O176        O  0.39959837  0.56155807  0.67519237    -0.87700
H177        H  0.36981815  0.53522707  0.67770448    -0.06000
H178        H  0.47371651  0.59068897  0.66295808    -0.06200
C179        C  0.38091865  0.55155426  0.68622116     0.87300
C180        C  0.43687735  0.62220032  0.71130175     0.87900
C181        C  0.45654955  0.58519480  0.66636830     0.88000
H182        H  0.40618238  0.51427720  0.75142347    -0.06200
O183        O  0.40057251  0.55214706  0.78588984    -0.75200
Mg184      Mg  0.41393746  0.54236946  0.66083915     1.58000
H185        H  0.37612638  0.55913764  0.78126514    -0.06200
C186        C  0.37027801  0.59941283  0.66818442     0.93000
O187        O  0.41265030  0.58315628  0.60584486    -0.82400
C188        C  0.41843216  0.56998402  0.59467494     0.93000
O189        O  0.42348579  0.63042824  0.79891614    -0.82400
Mg190      Mg  0.43429632  0.55458970  0.78819374     1.58200
O191        O  0.38224157  0.59402687  0.65213490    -0.80800
O192        O  0.47798524  0.54802058  0.74764767    -0.82500
O193        O  0.17987440  0.57656746  0.01406013    -0.88000
C194        C  0.16869408  0.60047017  0.09398449     0.88000
Mg195      Mg  0.16773023  0.57990770  0.97000400     1.58100
O196        O  0.13832480  0.54376117  0.08711701    -0.87800
O197        O  0.17745358  0.55049406  0.04399037    -0.75100
C198        C  0.06162848  0.54363907  0.99322195     0.93000
O199        O  0.17329668  0.61750567  0.02512129    -0.74900
O200        O  0.07747911  0.55639492  0.97571254    -0.82400
Mg201      Mg  0.19652390  0.60548655  0.04225845     1.58000
C202        C  0.07319981  0.51068699  0.10876516     0.93000
O203        O  0.22192337  0.59606912  0.05885783    -0.80700
H204        H  0.13699925  0.51496567  0.08296007    -0.06000
C205        C  0.10465862  0.57437153  0.06095950     0.87900
O206        O  0.13932831  0.54432160  0.97329561    -0.75200
O207        O  0.17505337  0.58927929  0.07976791    -0.88000
O208        O  0.09181140  0.52424428  0.12015116    -0.80800
C209        C  0.15463593  0.56370748  0.16624563     0.93100
C210        C  0.22462957  0.58591562  0.08130925     0.92900
Mg211      Mg  0.09094743  0.52862469  0.03875170     1.58000
O212        O  0.06458251  0.53552039  0.01806373    -0.80700
O213        O  0.11372385  0.51707806  0.05804523    -0.74900
O214        O  0.16965380  0.56678535  0.14670804    -0.80800
O215        O  0.21931363  0.62435554  0.00360892    -0.82500
O216        O  0.11912224  0.56818932  0.93212358    -0.80800
C217        C  0.12991262  0.52487628  0.07675359     0.87400
O218        O  0.11302023  0.54498607  0.00027479    -0.87900
O219        O  0.10745754  0.55870646  0.06517362    -0.88000
O220        O  0.10717135  0.58286242  0.03409733    -0.75100
Mg221      Mg  0.17270237  0.55939952  0.09443557     1.58000
O222        O  0.13520365  0.55776670  0.15744914    -0.82500
H223        H  0.18344272  0.55201485  0.99713777    -0.06200
O224        O  0.14893529  0.59189870  0.99409152    -0.87700
H225        H  0.14944531  0.62004255  0.00236550    -0.06000
H226        H  0.11005765  0.51739428  0.98215168    -0.06200
C227        C  0.15689954  0.61017995  0.00667725     0.87300
C228        C  0.18065920  0.55963957  0.01748783     0.87900
C229        C  0.12018667  0.53485216  0.98504361     0.88000
H230        H  0.10053802  0.58137563  0.08077804    -0.06200
O231        O  0.14934780  0.59239206  0.10445786    -0.75200
Mg232      Mg  0.11420763  0.57441262  0.98457182     1.58000
H233        H  0.17962310  0.61784790  0.09621492    -0.06200
C234        C  0.21523807  0.62785715  0.97599045     0.93000
O235        O  0.15467445  0.58193800  0.92294043    -0.82400
C236        C  0.13516368  0.57424777  0.91321285     0.93000
O237        O  0.20930084  0.57452015  0.10043041    -0.82400
Mg238      Mg  0.12090857  0.55769341  0.10978713     1.58200
O239        O  0.19714052  0.61505694  0.96228769    -0.80800
O240        O  0.06818369  0.51109246  0.08011327    -0.82500
O241        O  0.18911824  0.60754933  0.55247198    -0.88000
C242        C  0.17520300  0.55885822  0.48978351     0.88000
Mg243      Mg  0.18231170  0.60191282  0.60121867     1.58100
O244        O  0.13848216  0.57868746  0.48851556    -0.87800
O245        O  0.17982597  0.62175818  0.51441230    -0.75100
C246        C  0.08025577  0.52071812  0.61281108     0.93000
O247        O  0.18924057  0.56303494  0.56182203    -0.74900
O248        O  0.09890301  0.52882148  0.62577480    -0.82400
Mg249      Mg  0.20630013  0.59312170  0.53020284     1.58000
C250        C  0.07152546  0.53569585  0.48247391     0.93000
O251        O  0.22598446  0.62301456  0.49823186    -0.80700
H252        H  0.13216234  0.60283843  0.48127946    -0.06000
C253        C  0.11714643  0.52325625  0.53987583     0.87900
O254        O  0.15017005  0.60255038  0.59507840    -0.75200
O255        O  0.18052720  0.57794615  0.49640252    -0.88000
O256        O  0.08963412  0.54051168  0.46938362    -0.80800
C257        C  0.14708315  0.56287988  0.41206259     0.93100
C258        C  0.22419980  0.62959624  0.47117557     0.92900
Mg259      Mg  0.09770904  0.55299886  0.54907648     1.58000
O260        O  0.07775302  0.52526598  0.58468106    -0.80700
O261        O  0.11386883  0.58206753  0.51564932    -0.74900
O262        O  0.16346103  0.57939373  0.42465664    -0.80800
O263        O  0.23368682  0.60739216  0.56645837    -0.82500
O264        O  0.14102923  0.56930618  0.65467961    -0.80800
C265        C  0.12829928  0.58834804  0.49426062     0.87400
O266        O  0.12441533  0.56939097  0.58235522    -0.87900
O267        O  0.11552924  0.53834492  0.52852127    -0.88000
O268        O  0.12422169  0.52442039  0.56758308    -0.75100
Mg269      Mg  0.17134760  0.59862664  0.47195007     1.58000
O270        O  0.13071817  0.54943289  0.42799235    -0.82500
H271        H  0.19082605  0.63650092  0.55689285    -0.06200
O272        O  0.16616002  0.56744231  0.59163908    -0.87700
H273        H  0.17084842  0.54196974  0.59585912    -0.06000
H274        H  0.11835166  0.59392570  0.58871481    -0.06200
C275        C  0.17531439  0.55701082  0.58398060     0.87300
C276        C  0.18709366  0.62260354  0.54189738     0.87900
C277        C  0.13032471  0.58863949  0.58895995     0.88000
H278        H  0.11314619  0.50902933  0.52548558    -0.06200
O279        O  0.15541468  0.54428602  0.48525300    -0.75200
Mg280      Mg  0.13327771  0.54886722  0.60855540     1.58000
H281        H  0.18767036  0.55422464  0.48929978    -0.06200
C282        C  0.23256474  0.60707008  0.59636846     0.93000
O283        O  0.17507597  0.59722876  0.65304020    -0.82400
C284        C  0.15768662  0.58500855  0.66805586     0.93000
O285        O  0.20625709  0.62067322  0.45591380    -0.82400
Mg286      Mg  0.12310385  0.54414359  0.47960058     1.58200
O287        O  0.21530258  0.60365828  0.61087812    -0.80800
O288        O  0.06967996  0.53628585  0.51233462    -0.82500
O289        O  0.81321607  0.40041771  0.28582817    -0.88000
C290        C  0.84064695  0.44456776  0.21713442     0.88000
Mg291      Mg  0.81579007  0.40931517  0.33443171     1.58100
O292        O  0.86583930  0.41403426  0.23135338    -0.87800
O293        O  0.81936848  0.37911895  0.25464184    -0.75100
C294        C  0.92215622  0.47287028  0.35994477     0.93000
O295        O  0.82318000  0.44949543  0.28388693    -0.74900
O296        O  0.90366269  0.47004901  0.36880014    -0.82400
Mg297      Mg  0.80370282  0.41771674  0.25475604     1.58000
C298        C  0.93157025  0.44148831  0.23737340     0.93000
O299        O  0.78251076  0.38696435  0.22604416    -0.80700
H300        H  0.86480305  0.38533260  0.23254197    -0.06000
C301        C  0.89548526  0.47367579  0.27691409     0.87900
O302        O  0.84269715  0.40015876  0.34070300    -0.75200
O303        O  0.83114044  0.42554729  0.22640647    -0.88000
O304        O  0.91634058  0.44023588  0.22015304    -0.80800
C305        C  0.86724320  0.42816650  0.15018707     0.93100
C306        C  0.78254737  0.37558136  0.20269450     0.92900
Mg307      Mg  0.90225486  0.43675652  0.29869028     1.58000
O308        O  0.92456595  0.46485988  0.33400147    -0.80700
O309        O  0.88286231  0.40635288  0.26746142    -0.74900
O310        O  0.84867140  0.41478490  0.16191485    -0.80800
O311        O  0.77419732  0.41025912  0.28308497    -0.82500
O312        O  0.85461580  0.43845872  0.39234625    -0.80800
C313        C  0.87105424  0.40137559  0.24296505     0.87400
O314        O  0.87366040  0.42863162  0.32701725    -0.87900
O315        O  0.89298830  0.45562899  0.26947245    -0.88000
O316        O  0.88784815  0.47668578  0.30241049    -0.75100
Mg317      Mg  0.83452108  0.39847378  0.20967449     1.58000
O318        O  0.88399625  0.43955337  0.16733345    -0.82500
H319        H  0.80461265  0.36986446  0.29713508    -0.06200
O320        O  0.83926678  0.44222744  0.32215380    -0.87700
H321        H  0.84156872  0.47140324  0.31784683    -0.06000
H322        H  0.87208416  0.40147522  0.34302866    -0.06200
C323        C  0.83486292  0.45496844  0.30868757     0.87300
C324        C  0.81184187  0.38261025  0.27990672     0.87900
C325        C  0.86335512  0.40992087  0.33733334     0.88000
H326        H  0.90383720  0.48708065  0.26091096    -0.06200
O327        O  0.86134262  0.45582001  0.21567906    -0.75200
Mg328      Mg  0.87051070  0.45559853  0.34526540     1.58000
H329        H  0.83108478  0.45220118  0.21173374    -0.06200
C330        C  0.77244091  0.41362254  0.31196721     0.93000
O331        O  0.81861149  0.41743310  0.38636229    -0.82400
C332        C  0.83545122  0.42699318  0.40379352     0.93000
O333        O  0.80012933  0.37959833  0.18857127    -0.82400
Mg334      Mg  0.88835291  0.44717784  0.22000351     1.58200
O335        O  0.78689037  0.41616823  0.33209910    -0.80800
O336        O  0.93199049  0.44430782  0.26716101    -0.82500
O337        O  0.81233170  0.40559441  0.79105115    -0.88000
C338        C  0.83180620  0.45142335  0.72412309     0.88000
Mg339      Mg  0.81714552  0.41360955  0.84004493     1.58100
O340        O  0.86373348  0.42642421  0.72821054    -0.87800
O341        O  0.82046381  0.38786263  0.75569498    -0.75100
C342        C  0.92371632  0.48591663  0.85187397     0.93000
O343        O  0.81754190  0.45259611  0.79448549    -0.74900
O344        O  0.90575714  0.47940040  0.86661063    -0.82400
Mg345      Mg  0.79858742  0.42092507  0.76441431     1.58000
C346        C  0.93038465  0.46234571  0.72553103     0.93000
O347        O  0.77777814  0.38949527  0.73503901    -0.80700
H348        H  0.86648572  0.39974452  0.72391592    -0.06000
C349        C  0.88963989  0.48437392  0.77758885     0.87900
O350        O  0.84681656  0.40791451  0.83879093    -0.75200
O351        O  0.82494537  0.43243324  0.73234936    -0.88000
O352        O  0.91345938  0.45955115  0.71105726    -0.80800
C353        C  0.85811113  0.44075366  0.64978848     0.93100
C354        C  0.77877607  0.38064750  0.70919045     0.92900
Mg355      Mg  0.90273930  0.45056299  0.79081838     1.58000
O356        O  0.92433040  0.47973130  0.82374677    -0.80700
O357        O  0.88476901  0.42035171  0.75906132    -0.74900
O358        O  0.84100973  0.42567551  0.66285420    -0.80800
O359        O  0.77032928  0.40998970  0.79717952    -0.82500
O360        O  0.85915049  0.44265160  0.89407254    -0.80800
C361        C  0.87160621  0.41504827  0.73611730     0.87400
O362        O  0.87534525  0.43829223  0.82328465    -0.87900
O363        O  0.88860798  0.46746205  0.76724320    -0.88000
O364        O  0.88337993  0.48558209  0.80526264    -0.75100
Mg365      Mg  0.83120137  0.40845640  0.71091706     1.58000
O366        O  0.87509740  0.45372330  0.66551484    -0.82500
H367        H  0.80857063  0.37615746  0.79896916    -0.06200
O368        O  0.83766644  0.44727624  0.82869270    -0.87700
H369        H  0.83674097  0.47505229  0.82740251    -0.06000
H370        H  0.87733310  0.41196838  0.83435865    -0.06200
C371        C  0.83087856  0.45890262  0.81757014     0.87300
C372        C  0.81331657  0.38929722  0.78261229     0.87900
C373        C  0.86709766  0.41925647  0.83229884     0.88000
H374        H  0.89558473  0.49833977  0.76249455    -0.06200
O375        O  0.85201523  0.46459820  0.72016260    -0.75200
Mg376      Mg  0.87064432  0.46255716  0.84760019     1.58000
H377        H  0.82036572  0.45728281  0.72183361    -0.06200
C378        C  0.76957199  0.41305521  0.82645985     0.93000
O379        O  0.82302571  0.42057159  0.89203298    -0.82400
C380        C  0.84091424  0.42987104  0.90727900     0.93000
O381        O  0.79640787  0.38791334  0.69355750    -0.82400
Mg382      Mg  0.88205967  0.46051771  0.71784360     1.58200
O383        O  0.78562119  0.41726505  0.84468300    -0.80800
O384        O  0.93141531  0.46258212  0.75549989    -0.82500
O385        O  0.60572346  0.18466672  0.09169636    -0.88000
C386        C  0.57291490  0.17710889  0.17315102     0.88000
Mg387      Mg  0.59031175  0.17346030  0.04718118     1.58100
O388        O  0.59517574  0.14292578  0.16530445    -0.87800
O389        O  0.62877784  0.18070242  0.12144335    -0.75100
C390        C  0.51640187  0.06961588  0.06820566     0.93000
O391        O  0.55945244  0.18127224  0.10337948    -0.74900
O392        O  0.52078866  0.08605822  0.05155316    -0.82400
Mg393      Mg  0.59505136  0.20254530  0.12025808     1.58000
C394        C  0.55672157  0.07731407  0.18732850     0.93000
O395        O  0.63001769  0.22578635  0.13598667    -0.80700
H396        H  0.62096401  0.13851209  0.16156587    -0.06000
C397        C  0.53042577  0.11395856  0.13806936     0.87900
O398        O  0.59499190  0.14342916  0.05123062    -0.75200
O399        O  0.58952194  0.18146731  0.15789238    -0.88000
O400        O  0.56411602  0.09642852  0.19881259    -0.80800
C401        C  0.59485029  0.16052650  0.24427189     0.93100
C402        C  0.64364085  0.22871356  0.15753475     0.92900
Mg403      Mg  0.55960544  0.09626642  0.11682727     1.58000
O404        O  0.52584555  0.07153931  0.09454865    -0.80700
O405        O  0.59434752  0.11653166  0.13684824    -0.74900
O406        O  0.60709303  0.17506925  0.22472314    -0.80800
O407        O  0.59989607  0.22545407  0.08200940    -0.82500
O408        O  0.55220446  0.12598797  0.00998378    -0.80800
C409        C  0.60414067  0.13287392  0.15524447     0.87400
O410        O  0.56742419  0.11892979  0.07858693    -0.87900
O411        O  0.54820523  0.11505358  0.14297868    -0.88000
O412        O  0.52497593  0.11667176  0.11080639    -0.75100
Mg413      Mg  0.61626540  0.17729090  0.17213785     1.58000
O414        O  0.57979969  0.14165870  0.23549711    -0.82500
H415        H  0.63294969  0.18628207  0.07462569    -0.06200
O416        O  0.55921380  0.15677348  0.07073988    -0.87700
H417        H  0.53249385  0.15899610  0.07950375    -0.06000
H418        H  0.59070295  0.11353638  0.06101751    -0.06200
C419        C  0.54973292  0.16546436  0.08393279     0.87300
C420        C  0.62294379  0.18427973  0.09503295     0.87900
C421        C  0.58444919  0.12465704  0.06349275     0.88000
H422        H  0.51942069  0.11103106  0.15754353    -0.06200
O423        O  0.56053998  0.15821792  0.18379924    -0.75200
Mg424      Mg  0.54056609  0.12227599  0.06151765     1.58000
H425        H  0.56821701  0.18941825  0.17610550    -0.06200
C426        C  0.59345682  0.22264590  0.05369816     0.93000
O427        O  0.57536506  0.16076048  0.99929415    -0.82400
C428        C  0.56305383  0.14107920  0.99045787     0.93000
O429        O  0.64003766  0.21404658  0.17753117    -0.82400
Mg430      Mg  0.56377341  0.12786538  0.18805937     1.58200
O431        O  0.58743070  0.20466478  0.03897504    -0.80800
O432        O  0.55175951  0.07295567  0.15828058    -0.82500
O433        O  0.61681192  0.18739341  0.60211137    -0.88000
C434        C  0.57198387  0.17157063  0.67117370     0.88000
Mg435      Mg  0.60691628  0.17987592  0.55396469     1.58100
O436        O  0.59546395  0.13827760  0.66789379    -0.87800
O437        O  0.63485189  0.18011678  0.63716632    -0.75100
C438        C  0.53065366  0.07536235  0.54946362     0.93000
O439        O  0.57016001  0.18486822  0.60111943    -0.74900
O440        O  0.53633551  0.09380228  0.53771333    -0.82400
Mg441      Mg  0.60257069  0.20323768  0.62854202     1.58000
C442        C  0.55693295  0.07114249  0.67623225     0.93000
O443        O  0.63428529  0.22452768  0.65631635    -0.80700
H444        H  0.62165537  0.13450131  0.67051025    -0.06000
C445        C  0.53571047  0.11190583  0.62505021     0.87900
O446        O  0.61041322  0.14908477  0.55643661    -0.75200
O447        O  0.59087070  0.17792950  0.66198158    -0.88000
O448        O  0.56151819  0.08902420  0.69005502    -0.80800
C449        C  0.58311296  0.14829791  0.74628437     0.93100
C450        C  0.64334425  0.22452160  0.68214043     0.92900
Mg451      Mg  0.56774250  0.09603359  0.60881594     1.58000
O452        O  0.53793420  0.07345731  0.57603316    -0.80700
O453        O  0.59906063  0.11467683  0.63839445    -0.74900
O454        O  0.59780949  0.16423743  0.73091427    -0.80800
O455        O  0.61358051  0.23004459  0.59356612    -0.82500
O456        O  0.57268726  0.13641759  0.50622194    -0.80800
C457        C  0.60593968  0.12931877  0.65975649     0.87400
O458        O  0.57982019  0.12240629  0.57528267    -0.87900
O459        O  0.55245491  0.11191692  0.63336998    -0.88000
O460        O  0.53418980  0.11859173  0.59821911    -0.75100
Mg461      Mg  0.61477888  0.17165103  0.68280768     1.58000
O462        O  0.56985745  0.13017418  0.73315601    -0.82500
H463        H  0.64590816  0.19012565  0.59297603    -0.06200
O464        O  0.57361502  0.16190549  0.56982521    -0.87700
H465        H  0.54689334  0.16492806  0.56980625    -0.06000
H466        H  0.60479902  0.11826723  0.56212627    -0.06200
C467        C  0.56296013  0.17036772  0.57948746     0.87300
C468        C  0.63309799  0.18631691  0.60999655     0.87900
C469        C  0.59841484  0.12929283  0.56441995     0.88000
H470        H  0.52237571  0.10691866  0.64151777    -0.06200
O471        O  0.55879813  0.15170401  0.67724667    -0.75200
Mg472      Mg  0.55562477  0.12855086  0.55417682     1.58000
H473        H  0.56621723  0.18312623  0.67275958    -0.06200
C474        C  0.61042775  0.22905975  0.56407944     0.93000
O475        O  0.59738834  0.17160438  0.50237928    -0.82400
C476        C  0.58549363  0.15285322  0.48995243     0.93000
O477        O  0.63662747  0.20727608  0.69812478    -0.82400
Mg478      Mg  0.56159155  0.12095365  0.68156666     1.58200
O479        O  0.60570753  0.21193565  0.54786624    -0.80800
O480        O  0.55560733  0.06896001  0.64627363    -0.82500
O481        O  0.42177564  0.81273522  0.38209994    -0.88000
C482        C  0.39701691  0.82861765  0.30829815     0.88000
Mg483      Mg  0.41729430  0.82092498  0.42883009     1.58100
O484        O  0.45362849  0.86151661  0.31536482    -0.87800
O485        O  0.44915052  0.82037873  0.35008511    -0.75100
C486        C  0.44866186  0.92587048  0.42868847     0.93000
O487        O  0.37813454  0.81607852  0.37707443    -0.74900
O488        O  0.43488690  0.90770679  0.44028518    -0.82400
Mg489      Mg  0.39300448  0.79692386  0.35327855     1.58000
C490        C  0.48362773  0.92841651  0.30515480     0.93000
O491        O  0.40529252  0.77551647  0.32945119    -0.80700
H492        H  0.48350812  0.86492730  0.31492753    -0.06000
C493        C  0.41933137  0.88899153  0.35184221     0.87900
O494        O  0.45209822  0.85115701  0.42790834    -0.75200
O495        O  0.40878777  0.82204932  0.31958828    -0.88000
O496        O  0.47096818  0.91045350  0.29103120    -0.80800
C497        C  0.43427224  0.85007913  0.23537655     0.93100
C498        C  0.41644659  0.77571970  0.30559391     0.92900
Mg499      Mg  0.46620466  0.90407598  0.37234279     1.58000
O500        O  0.45836473  0.92720677  0.40261494    -0.80700
O501        O  0.47994082  0.88515878  0.34559158    -0.74900
O502        O  0.43232873  0.83439733  0.25204802    -0.80800
O503        O  0.37455894  0.77036307  0.38875193    -0.82500
O504        O  0.42579628  0.86521590  0.47368901    -0.80800
C505        C  0.47277496  0.87036638  0.32448867     0.87400
O506        O  0.44992484  0.87789012  0.40595083    -0.87900
O507        O  0.43622424  0.88859369  0.34540032    -0.88000
O508        O  0.40996702  0.88274403  0.37824199    -0.75100
Mg509      Mg  0.43992974  0.82808571  0.30217173     1.58000
O510        O  0.43926324  0.86860054  0.24736619    -0.82500
H511        H  0.44779960  0.81052825  0.39496288    -0.06200
O512        O  0.40345126  0.83921228  0.40935396    -0.87700
H513        H  0.37405745  0.83684023  0.40608420    -0.06000
H514        H  0.47812778  0.88153209  0.42216940    -0.06200
C515        C  0.38479801  0.83094364  0.39818874     0.87300
C516        C  0.43964495  0.81407249  0.37647348     0.87900
C517        C  0.46076127  0.87080931  0.41885391     0.88000
H518        H  0.41188219  0.89397841  0.33410766    -0.06200
O519        O  0.40437788  0.84843965  0.30116528    -0.75200
Mg520      Mg  0.41904432  0.87280730  0.42423269     1.58000
H521        H  0.37971689  0.81729720  0.30563555    -0.06200
C522        C  0.37136487  0.77206630  0.41787950     0.93000
O523        O  0.41348490  0.82977666  0.47901240    -0.82400
C524        C  0.42030124  0.84869757  0.49075127     0.93000
O525        O  0.42728082  0.79266475  0.28917286    -0.82400
Mg526      Mg  0.43830074  0.87887661  0.29813926     1.58200
O527        O  0.38350639  0.78943136  0.43366992    -0.80800
O528        O  0.48298515  0.93084709  0.33493004    -0.82500
O529        O  0.40542097  0.81492817  0.88671072    -0.88000
C530        C  0.38053523  0.82865206  0.81056658     0.88000
Mg531      Mg  0.40374194  0.82626338  0.93278483     1.58100
O532        O  0.43756983  0.85847232  0.81395822    -0.87800
O533        O  0.43116003  0.81839437  0.85408042    -0.75100
C534        C  0.44219470  0.93296548  0.91811792     0.93000
O535        O  0.36476207  0.82300145  0.88175731    -0.74900
O536        O  0.42935930  0.91655209  0.93445853    -0.82400
Mg537      Mg  0.37574512  0.80003696  0.85976566     1.58000
C538        C  0.47052675  0.92450604  0.79479946     0.93000
O539        O  0.38309683  0.77452875  0.83794087    -0.80700
H540        H  0.46644454  0.85959892  0.81336979    -0.06000
C541        C  0.40782621  0.89151272  0.84812991     0.87900
O542        O  0.43941191  0.85469521  0.92750628    -0.75200
O543        O  0.39193149  0.82220751  0.82332357    -0.88000
O544        O  0.45639667  0.90617931  0.78304233    -0.80800
C545        C  0.41568211  0.84297361  0.73614080     0.93100
C546        C  0.39314107  0.77194080  0.81481385     0.92900
Mg547      Mg  0.45456994  0.90473815  0.86535355     1.58000
O548        O  0.44903983  0.93087712  0.89112624    -0.80700
O549        O  0.46549811  0.88251854  0.84146684    -0.74900
O550        O  0.41307621  0.82809604  0.75502503    -0.80800
O551        O  0.35745257  0.77652137  0.89742429    -0.82500
O552        O  0.41767655  0.87422472  0.97373245    -0.80800
C553        C  0.45687219  0.86663403  0.82212210     0.87400
O554        O  0.43866324  0.88140452  0.90301700    -0.87900
O555        O  0.42356087  0.88919107  0.84094217    -0.88000
O556        O  0.40020006  0.88827563  0.87589856    -0.75100
Mg557      Mg  0.42139920  0.82418743  0.80547830     1.58000
O558        O  0.42192095  0.86243566  0.74538287    -0.82500
H559        H  0.43023780  0.81082849  0.90002501    -0.06200
O560        O  0.39133959  0.84577824  0.91279424    -0.87700
H561        H  0.36328262  0.84611887  0.90879212    -0.06000
H562        H  0.46654934  0.88361020  0.91789059    -0.06200
C563        C  0.37275901  0.83857534  0.90179973     0.87300
C564        C  0.42229177  0.81421871  0.88106145     0.87900
C565        C  0.44894690  0.87382399  0.91622567     0.88000
H566        H  0.39999404  0.89586244  0.83013331    -0.06200
O567        O  0.38854350  0.84800029  0.80088231    -0.75200
Mg568      Mg  0.40999084  0.88027045  0.92328036     1.58000
H569        H  0.36307034  0.81779546  0.80899179    -0.06200
C570        C  0.35547489  0.77864983  0.92670788     0.93000
O571        O  0.40374475  0.83875086  0.98221146    -0.82400
C572        C  0.41244220  0.85836200  0.99222440     0.93000
O573        O  0.40581097  0.78765929  0.79727862    -0.82400
Mg574      Mg  0.42325519  0.87637684  0.79458859     1.58200
O575        O  0.36881809  0.79596681  0.94189385    -0.80800
O576        O  0.47141078  0.92865021  0.82429476    -0.82500
C577        C  0.41260577  0.83952293  0.58005840     0.19000
C578        C  0.41222561  0.82412293  0.60073383    -0.19100
C579        C  0.41280311  0.82755719  0.63325023    -0.11400
C580        C  0.41336384  0.84639014  0.64579815     0.21200
C581        C  0.41306536  0.86143470  0.62504245    -0.20700
C582        C  0.41255945  0.85802366  0.59257573    -0.11600
C583        C  0.41548093  0.85162853  0.68005115    -0.15700
C584        C  0.41168300  0.83700662  0.70249884    -0.29600
C585        C  0.41274098  0.83572410  0.54564626    -0.03800
C586        C  0.42143571  0.85214807  0.52507776    -0.40400
H587        H  0.41207282  0.80966090  0.59168037     0.12400
H588        H  0.41346252  0.81568582  0.64814719     0.12000
H589        H  0.41334156  0.87598218  0.63398329     0.11500
H590        H  0.41197422  0.86986063  0.57744649     0.11700
H591        H  0.42063069  0.86833591  0.68702727     0.14400
H592        H  0.40577819  0.82006395  0.69638601     0.13200
H593        H  0.40585095  0.81903654  0.53711715     0.10900
H594        H  0.42914074  0.86890339  0.53346213     0.12900
C595        C  0.41724038  0.85179988  0.08185322     0.19000
C596        C  0.40947529  0.83374370  0.10165905    -0.19100
C597        C  0.41369168  0.83648296  0.13398265    -0.11400
C598        C  0.42601481  0.85748139  0.14735935     0.21200
C599        C  0.43351701  0.87555713  0.12769530    -0.20700
C600        C  0.42934838  0.87282749  0.09533668    -0.11600
C601        C  0.43080093  0.86126577  0.18167750    -0.15700
C602        C  0.43027668  0.84618095  0.20116062    -0.29600
C603        C  0.41272951  0.84773734  0.04743459    -0.03800
C604        C  0.41669640  0.86325670  0.02625187    -0.40400
H605        H  0.40000559  0.81735692  0.09208157     0.12400
H606        H  0.40694834  0.82209545  0.14830747     0.12000
H607        H  0.44291430  0.89192229  0.13737268     0.11500
H608        H  0.43597353  0.88728685  0.08123457     0.11700
H609        H  0.43532528  0.87731964  0.19115282     0.14400
H610        H  0.42666559  0.83033093  0.19206893     0.13200
H611        H  0.40570562  0.83097066  0.03912917     0.10900
H612        H  0.42328227  0.88010226  0.03357754     0.12900
C613        C  0.53142508  0.01330510  0.71083840     0.19000
C614        C  0.51221257  0.99396539  0.70286662    -0.19100
C615        C  0.50183150  0.97719855  0.72462065    -0.11400
C616        C  0.51060572  0.97918317  0.75496133     0.21200
C617        C  0.53017226  0.99826847  0.76268115    -0.20700
C618        C  0.54060183  0.01505848  0.74084869    -0.11600
C619        C  0.49891671  0.96230515  0.77946299    -0.15700
C620        C  0.48515470  0.94121422  0.77212684    -0.29600
C621        C  0.54054721  0.03157202  0.68790502    -0.03800
C622        C  0.55215544  0.05263985  0.69694210    -0.40400
H623        H  0.50470117  0.99213705  0.68005726     0.12400
H624        H  0.48647285  0.96310346  0.71788826     0.12000
H625        H  0.53733997  0.00026146  0.78578865     0.11500
H626        H  0.55572596  0.02939111  0.74772092     0.11700
H627        H  0.50137608  0.96747075  0.80398702     0.14400
H628        H  0.48347968  0.93589941  0.74773674     0.13200
H629        H  0.53535681  0.02774893  0.66352290     0.10900
H630        H  0.55603001  0.05669449  0.72162883     0.12900
C631        C  0.50057333  0.01783711  0.51117197     0.19000
C632        C  0.48918788  0.99614661  0.52111173    -0.19100
C633        C  0.47917493  0.97895098  0.49921070    -0.11400
C634        C  0.48063394  0.98308021  0.46672873     0.21200
C635        C  0.49225397  0.00473135  0.45677067    -0.20700
C636        C  0.50199361  0.02192763  0.47866271    -0.11600
C637        C  0.47205617  0.96507600  0.44286119    -0.15700
C638        C  0.45430646  0.94554480  0.44801264    -0.29600
C639        C  0.51214190  0.03578797  0.53481719    -0.03800
C640        C  0.51585497  0.05609115  0.53002095    -0.40400
H641        H  0.48820034  0.99249097  0.54588974     0.12400
H642        H  0.47102787  0.96242116  0.50773782     0.12000
H643        H  0.49403168  0.00833707  0.43192587     0.11500
H644        H  0.51130897  0.03834885  0.46991992     0.11700
H645        H  0.48116669  0.96772156  0.42113610     0.19200
H646        H  0.44485100  0.94319882  0.46930508     0.13200
H647        H  0.51815702  0.03232016  0.55615216     0.10900
H648        H  0.50912997  0.05926786  0.50919622     0.12900
C649        C  0.56834517  0.13904860  0.83438266     0.19000
C650        C  0.56193736  0.12142006  0.85466699    -0.19100
C651        C  0.56289663  0.12460528  0.88734839    -0.11400
C652        C  0.57005991  0.14553641  0.90027271     0.21200
C653        C  0.57598080  0.16298083  0.87992846    -0.20700
C654        C  0.57490648  0.15978736  0.84743070    -0.11600
C655        C  0.57217685  0.15021651  0.93461927    -0.15700
C656        C  0.56095721  0.13528041  0.95663354    -0.29600
C657        C  0.56832965  0.13551583  0.79982768    -0.03800
C658        C  0.58204290  0.15141001  0.78045898    -0.40400
H659        H  0.55671189  0.10525865  0.84521052     0.12400
H660        H  0.55855634  0.11079731  0.90223555     0.12000
H661        H  0.58136599  0.17921060  0.88924333     0.11500
H662        H  0.57914010  0.17363554  0.83268293     0.11700
H663        H  0.58282182  0.16704695  0.94199090     0.14400
H664        H  0.54962088  0.11851531  0.94991314     0.13200
H665        H  0.55767866  0.11923604  0.79037310     0.10900
H666        H  0.59369683  0.16732743  0.78998439     0.12900
C667        C  0.59546171  0.16200124  0.40059177     0.19000
C668        C  0.59854513  0.17883478  0.38046204    -0.19100
C669        C  0.59690726  0.17555781  0.34781856    -0.11400
C670        C  0.59232941  0.15535542  0.33464814     0.21200
C671        C  0.58969388  0.13869878  0.35473317    -0.20700
C672        C  0.59145505  0.14200398  0.38728280    -0.11600
C673        C  0.58912127  0.15063577  0.30034678    -0.15700
C674        C  0.59845644  0.16596495  0.27819220    -0.29600
C675        C  0.59639415  0.16575894  0.43522958    -0.03800
C676        C  0.58582440  0.14943266  0.45567635    -0.40400
H677        H  0.60170867  0.19440032  0.39005855     0.12400
H678        H  0.59859461  0.18864032  0.33311727     0.12000
H679        H  0.58628971  0.12303856  0.34517417     0.11500
H680        H  0.58976686  0.12885790  0.40182112     0.11700
H681        H  0.57922365  0.13366170  0.29306282     0.14400
H682        H  0.60957629  0.18280968  0.28489846     0.13200
H683        H  0.60494360  0.18246703  0.44398415     0.10900
H684        H  0.57603035  0.13280986  0.44708010     0.12900
C685        C  0.53440127  0.02116763  0.22655007     0.19000
C686        C  0.52933242  0.00019189  0.21668889    -0.19100
C687        C  0.52106327  0.98292825  0.23782684    -0.11400
C688        C  0.51724788  0.98611409  0.26959031     0.21200
C689        C  0.52273027  0.00726842  0.27953534    -0.20700
C690        C  0.53115896  0.02457659  0.25838315    -0.11600
C691        C  0.50631030  0.96784740  0.29251594    -0.15700
C692        C  0.49859479  0.94669686  0.28494528    -0.29600
C693        C  0.54134197  0.03857662  0.20259669    -0.03800
C694        C  0.55289126  0.05996800  0.20974668    -0.40400
H695        H  0.53155192  0.99706248  0.19231822     0.12400
H696        H  0.51739631  0.96720536  0.22859210     0.12000
H697        H  0.51989994  0.01033531  0.30365947     0.11500
H698        H  0.53424698  0.04033543  0.26686686     0.11700
H699        H  0.50293067  0.97180658  0.31592110     0.14400
H700        H  0.50102208  0.94202172  0.26161162     0.13200
H701        H  0.53633880  0.03355769  0.17838026     0.10900
H702        H  0.55858657  0.06514724  0.23365285     0.12900
C703        C  0.45955010  0.98086872  0.97784573     0.19000
C704        C  0.46152969  0.98196477  0.01077132    -0.19100
C705        C  0.47239644  0.00205578  0.02678670    -0.11400
C706        C  0.48157598  0.02172556  0.01018535     0.21200
C707        C  0.47908230  0.02060852  0.97730581    -0.20700
C708        C  0.46822981  0.00050975  0.96129511    -0.11600
C709        C  0.49420742  0.04370520  0.02567784    -0.15700
C710        C  0.50082537  0.04740183  0.05604009    -0.29600
C711        C  0.44849730  0.95894266  0.96204525    -0.03800
C712        C  0.45052062  0.95528912  0.93126213    -0.40400
H713        H  0.45486443  0.96713918  0.02423799     0.12400
H714        H  0.47347401  0.00190572  0.05206639     0.12000
H715        H  0.48577396  0.03541787  0.96380013     0.11500
H716        H  0.46664422  0.00055337  0.93606259     0.11700
H717        H  0.49952872  0.05770237  0.01056627     0.14400
H718        H  0.49660075  0.03395244  0.07168772     0.13200
H719        H  0.43955107  0.94494344  0.97711049     0.10900
H720        H  0.46031854  0.96879938  0.91587572     0.12900
C721        C  0.68919825  0.28508041  0.68772462     0.19000
C722        C  0.70057615  0.30102408  0.66500561    -0.19100
C723        C  0.71761037  0.32168524  0.67363204    -0.11400
C724        C  0.72362993  0.32692980  0.70536639     0.21200
C725        C  0.71195628  0.31119345  0.72820253    -0.20700
C726        C  0.69499051  0.29044092  0.71954709    -0.11600
C727        C  0.74190891  0.34856364  0.71550694    -0.15700
C728        C  0.75926946  0.36088191  0.69715498    -0.29600
C729        C  0.67074692  0.26361731  0.67717238    -0.03800
C730        C  0.66203093  0.24519387  0.69410429    -0.40400
H731        H  0.69623991  0.29748463  0.64038279     0.12400
H732        H  0.72575113  0.33356336  0.65543223     0.12000
H733        H  0.71611286  0.31491188  0.75284969     0.11500
H734        H  0.68625652  0.27890199  0.73789129     0.11700
H735        H  0.74198396  0.35361562  0.73977586     0.14400
H736        H  0.76025300  0.35527959  0.67364730     0.13200
H737        H  0.66427796  0.26292555  0.65380947     0.10900
H738        H  0.66874572  0.24504062  0.71688668     0.12900
C739        C  0.73854759  0.31824429  0.17791868     0.19000
C740        C  0.73126565  0.30489537  0.15095052    -0.19100
C741        C  0.71181229  0.28479999  0.15167337    -0.11400
C742        C  0.69966041  0.27753211  0.17966657     0.21200
C743        C  0.70738625  0.29052041  0.20685523    -0.20700
C744        C  0.72652133  0.31075361  0.20596982    -0.11600
C745        C  0.67902951  0.25635937  0.18109657    -0.15700
C746        C  0.66427189  0.24973178  0.15783305    -0.29600
C747        C  0.75928765  0.33941384  0.17735610    -0.03800
C748        C  0.76135180  0.35660535  0.19400189    -0.40400
H749        H  0.74049572  0.31013227  0.12928853     0.12400
H750        H  0.70644279  0.27480147  0.13051619     0.12000
H751        H  0.69843391  0.28511789  0.22871835     0.11500
H752        H  0.73214092  0.32035495  0.22746021     0.11700
H753        H  0.67541596  0.24672396  0.20221636     0.14400
H754        H  0.66739369  0.26028246  0.13786039     0.13200
H755        H  0.77323490  0.34038691  0.16488783     0.10900
H756        H  0.74700744  0.35543369  0.20553014     0.12900
C757        C  0.84651695  0.43257741  0.49395174     0.19000
C758        C  0.86563214  0.44300368  0.51221973    -0.19100
C759        C  0.86471496  0.44213528  0.54502603    -0.11400
C760        C  0.84450885  0.43091792  0.56067152     0.21200
C761        C  0.82534683  0.42022067  0.54249791    -0.20700
C762        C  0.82625397  0.42108533  0.50957055    -0.11600
C763        C  0.84293032  0.42928710  0.59565962    -0.15700
C764        C  0.85887554  0.44333747  0.61525476    -0.29600
C765        C  0.84884083  0.43433657  0.45897590    -0.03800
C766        C  0.83221567  0.42452582  0.43827267    -0.40400
H767        H  0.88148859  0.45180412  0.50102696     0.12400
H768        H  0.87998263  0.44993497  0.55783313     0.12000
H769        H  0.80956274  0.41124071  0.55384228     0.11500
H770        H  0.81100408  0.41275007  0.49681597     0.11700
H771        H  0.82808612  0.41605098  0.60559089     0.14400
H772        H  0.87343254  0.45714341  0.60587555     0.13200
H773        H  0.86526516  0.44430058  0.44976856     0.10900
H774        H  0.81559319  0.41436224  0.44633700     0.12900
C775        C  0.85585244  0.42976882  0.99501584     0.19000
C776        C  0.87456130  0.43334491  0.01157456    -0.19100
C777        C  0.87386787  0.43040690  0.04418241    -0.11400
C778        C  0.85437774  0.42395589  0.06102651     0.21200
C779        C  0.83566264  0.42016441  0.04443770    -0.20700
C780        C  0.83637777  0.42322445  0.01198156    -0.11600
C781        C  0.85267612  0.42075130  0.09569100    -0.15700
C782        C  0.86973146  0.43081092  0.11563955    -0.29600
C783        C  0.85740191  0.43379155  0.96045664    -0.03800
C784        C  0.83983076  0.42539879  0.94131234    -0.40400
H785        H  0.88978611  0.43838139  0.99920442     0.12400
H786        H  0.88851572  0.43296292  0.05594960     0.12000
H787        H  0.82044510  0.41522133  0.05678692     0.11500
H788        H  0.82171492  0.42092254  0.00062099     0.11700
H789        H  0.83641942  0.41056141  0.10533405     0.14400
H790        H  0.88593193  0.44194201  0.10669092     0.13200
H791        H  0.87356447  0.44378921  0.95042469     0.10900
H792        H  0.82370624  0.41445844  0.95060464     0.12900
C793        C  0.31902336  0.71663532  0.43284467     0.19000
C794        C  0.30179385  0.70233406  0.41309994    -0.19100
C795        C  0.28342133  0.68411093  0.42515763    -0.11400
C796        C  0.28176466  0.67967750  0.45752492     0.21200
C797        C  0.29914298  0.69385971  0.47726941    -0.20700
C798        C  0.31756625  0.71215062  0.46515789    -0.11600
C799        C  0.26258768  0.66027763  0.47147242    -0.15700
C800        C  0.24326346  0.64831819  0.45661908    -0.29600
C801        C  0.33839695  0.73541637  0.41833657    -0.03800
C802        C  0.35299609  0.75351631  0.43408416    -0.40400
H803        H  0.30257497  0.70522653  0.38807757     0.12400
H804        H  0.27089981  0.67344451  0.40872860     0.12000
H805        H  0.29849459  0.69075000  0.50220982     0.11500
H806        H  0.33072205  0.72239490  0.48108931     0.11700
H807        H  0.26426620  0.65606940  0.49535053     0.14400
H808        H  0.24072514  0.65268084  0.43337324     0.13200
H809        H  0.34019280  0.73460886  0.39304797     0.10900
H810        H  0.35109733  0.75527917  0.45908029     0.12900
C811        C  0.02271655  0.49454525  0.64917124     0.19000
C812        C  0.00524619  0.49820560  0.64367480    -0.19100
C813        C  0.98814313  0.49145489  0.66515704    -0.11400
C814        C  0.98786057  0.48054148  0.69267765     0.21200
C815        C  0.00533642  0.47692870  0.69845409    -0.20700
C816        C  0.02251545  0.48363842  0.67679219    -0.11600
C817        C  0.96956568  0.47332879  0.71556157    -0.15700
C818        C  0.94910722  0.46636958  0.70545235    -0.29600
C819        C  0.04103718  0.50335477  0.62608296    -0.03800
C820        C  0.06113138  0.50671917  0.63245891    -0.40400
H821        H  0.00502176  0.50675982  0.62291395     0.12400
H822        H  0.97533391  0.49521386  0.66041356     0.12000
H823        H  0.00553734  0.46864313  0.71952612     0.11500
H824        H  0.03540692  0.48010730  0.68186317     0.11700
H825        H  0.97297174  0.47407846  0.74054769     0.14400
H826        H  0.94594237  0.46470028  0.68031180     0.13200
H827        H  0.03854890  0.50953813  0.60418755     0.10900
H828        H  0.06451736  0.50190182  0.65482409     0.12900
C829        C  0.97761191  0.49368726  0.40360608     0.19000
C830        C  0.99697448  0.49345325  0.39660275    -0.19100
C831        C  0.01445217  0.50191701  0.41786655    -0.11400
C832        C  0.01313434  0.51098083  0.44694912     0.21200
C833        C  0.99359946  0.51074551  0.45442751    -0.20700
C834        C  0.97606358  0.50230736  0.43304776    -0.11600
C835        C  0.03157262  0.51996014  0.47015380    -0.15700
C836        C  0.05256444  0.52852346  0.46106704    -0.29600
C837        C  0.95935837  0.48383685  0.38004368    -0.03800
C838        C  0.94096518  0.48519242  0.38160850    -0.40400
H839        H  0.99858545  0.48655140  0.37452616     0.12400
H840        H  0.02879114  0.50087586  0.41161347     0.12000
H841        H  0.99193521  0.51722186  0.47685283     0.11500
H842        H  0.96134547  0.50233831  0.44008359     0.11700
H843        H  0.02781022  0.51961167  0.49499971     0.14400
H844        H  0.05628923  0.52977359  0.43614347     0.13200
H845        H  0.96099056  0.47455276  0.36068441     0.10900
H846        H  0.93869475  0.49424113  0.40059160     0.12900
C847        C  0.26737788  0.68369326  0.96249499     0.19000
C848        C  0.28294747  0.69915990  0.98338503    -0.19100
C849        C  0.30062416  0.71848863  0.97241898    -0.11400
C850        C  0.30313791  0.72282626  0.94010375     0.21200
C851        C  0.28750830  0.70740757  0.91921069    -0.20700
C852        C  0.26982041  0.68807950  0.93017541    -0.11600
C853        C  0.32212764  0.74252940  0.92672165    -0.15700
C854        C  0.33700519  0.76027652  0.94311823    -0.29600
C855        C  0.24957234  0.66304710  0.97570129    -0.03800
C856        C  0.23195650  0.64762268  0.95982329    -0.40400
H857        H  0.28157863  0.69617107  0.00841341     0.12400
H858        H  0.31239850  0.72963576  0.98933154     0.12000
H859        H  0.28910174  0.71022148  0.89412930     0.11500
H860        H  0.25849186  0.67658651  0.91314278     0.11700
H861        H  0.32381417  0.74233205  0.90132218     0.14400
H862        H  0.33567461  0.76156142  0.96836038     0.13200
H863        H  0.25103925  0.66057768  0.00051627     0.10900
H864        H  0.22925046  0.64966543  0.93537956     0.12900
C865        C  0.01935725  0.47496572  0.15221893     0.19000
C866        C  0.99731327  0.46128398  0.14443461    -0.19100
C867        C  0.98123716  0.45362064  0.16774666    -0.11400
C868        C  0.98688885  0.45952591  0.19960500     0.21200
C869        C  0.00900960  0.47257941  0.20746145    -0.20700
C870        C  0.02507643  0.48024717  0.18415277    -0.11600
C871        C  0.97016494  0.45514120  0.22428199    -0.15700
C872        C  0.94906798  0.44002982  0.22066890    -0.29600
C873        C  0.03545533  0.48557379  0.12645117    -0.03800
C874        C  0.05712666  0.49509041  0.13094344    -0.40400
H875        H  0.99240127  0.45722627  0.12006644     0.12400
H876        H  0.96440354  0.44422612  0.16020248     0.12000
H877        H  0.01381336  0.47768392  0.23162634     0.11500
H878        H  0.04172670  0.49132701  0.19133011     0.11700
H879        H  0.97490900  0.46630190  0.24431848     0.14400
H880        H  0.94395693  0.42878452  0.20080926     0.13200
H881        H  0.02931595  0.48700530  0.10376780     0.10900
H882        H  0.06352294  0.49341405  0.15318065     0.12900
C883        C  0.14508323  0.57950833  0.82339062     0.19000
C884        C  0.16347363  0.59326215  0.80544007    -0.19100
C885        C  0.16262618  0.59244713  0.77266440    -0.11400
C886        C  0.14319879  0.57775297  0.75678219     0.21200
C887        C  0.12472659  0.56402125  0.77478849    -0.20700
C888        C  0.12559165  0.56485210  0.80772071    -0.11600
C889        C  0.14196994  0.57521308  0.72180373    -0.15700
C890        C  0.15753013  0.58921665  0.70215132    -0.29600
C891        C  0.14758186  0.58035656  0.85813926    -0.03800
C892        C  0.13097576  0.57240711  0.87893428    -0.40400
H893        H  0.17877245  0.60455947  0.81686625     0.12400
H894        H  0.17753399  0.60296967  0.76023214     0.12000
H895        H  0.10961954  0.55232372  0.76330603     0.11500
H896        H  0.11118619  0.55359245  0.82062362     0.11700
H897        H  0.12795743  0.56077309  0.71188499     0.14400
H898        H  0.17146446  0.60401084  0.71115845     0.13200
H899        H  0.16424967  0.58855296  0.86708412     0.10900
H900        H  0.11414910  0.56496083  0.87099316     0.12900
C901        C  0.15537139  0.57108205  0.32252250     0.19000
C902        C  0.17286658  0.58310381  0.30201059    -0.19100
C903        C  0.16989778  0.58040270  0.26935966    -0.11400
C904        C  0.14920960  0.56572837  0.25661730     0.21200
C905        C  0.13165064  0.55419328  0.27715790    -0.20700
C906        C  0.13462335  0.55681237  0.30964752    -0.11600
C907        C  0.14479900  0.56264244  0.22225128    -0.15700
C908        C  0.16016472  0.56724783  0.20011619    -0.29600
C909        C  0.15886178  0.57441890  0.35711082    -0.03800
C910        C  0.14612733  0.55903487  0.37779338    -0.40400
H911        H  0.18888912  0.59457009  0.31128823     0.12400
H912        H  0.18369467  0.59015171  0.25432497     0.12000
H913        H  0.11545878  0.54311325  0.26800656     0.11500
H914        H  0.12046053  0.54797490  0.32447913     0.11700
H915        H  0.12783526  0.55553864  0.21492155     0.14400
H916        H  0.17708167  0.57335077  0.20675947     0.13200
H917        H  0.17202062  0.58996996  0.36571133     0.10900
H918        H  0.13339331  0.54323384  0.36937215     0.12900
C919        C  0.01098865  0.53299361  0.94361467     0.19000
C920        C  0.00823742  0.54053690  0.91456804    -0.19100
C921        C  0.98764241  0.53134901  0.90025302    -0.11400
C922        C  0.96917584  0.51422706  0.91462598     0.21200
C923        C  0.97167277  0.50731982  0.94428462    -0.20700
C924        C  0.99229651  0.51642490  0.95856398    -0.11600
C925        C  0.94731176  0.50273612  0.89898632    -0.15700
C926        C  0.94490993  0.50050141  0.86750305    -0.29600
C927        C  0.03372389  0.54191859  0.95607331    -0.03800
C928        C  0.03883694  0.53701378  0.98417542    -0.40400
H929        H  0.02220225  0.55336884  0.90252378     0.12400
H930        H  0.98629576  0.53761664  0.87786075     0.12000
H931        H  0.95770976  0.49424972  0.95598924     0.11500
H932        H  0.99338069  0.50987846  0.98078656     0.11700
H933        H  0.93297997  0.49396294  0.91375767     0.14400
H934        H  0.95928166  0.50770608  0.85258237     0.13200
H935        H  0.04703565  0.55238802  0.94052341     0.10900
H936        H  0.02610908  0.52680323  0.00052041     0.12900
C937        C  0.40084242  0.68423798  0.78370545     0.19000
C938        C  0.38182814  0.68584909  0.78221480    -0.19100
C939        C  0.38295380  0.70605817  0.78597897    -0.11400
C940        C  0.40323191  0.72511233  0.79062599     0.21200
C941        C  0.42229110  0.72355978  0.79139588    -0.20700
C942        C  0.42111755  0.70330390  0.78827927    -0.11600
C943        C  0.40510881  0.74687494  0.79395898    -0.15700
C944        C  0.38996808  0.74995805  0.80883784    -0.29600
C945        C  0.39928183  0.66278409  0.77795927    -0.03800
C946        C  0.41278290  0.65693187  0.79143224    -0.40400
H947        H  0.36608962  0.67143721  0.77812126     0.12400
H948        H  0.36802104  0.70680809  0.78449233     0.12000
H949        H  0.43810473  0.73804688  0.79457764     0.11500
H950        H  0.43614833  0.70268315  0.78853912     0.11700
H951        H  0.42016010  0.76093601  0.78619244     0.14400
H952        H  0.37581990  0.73624079  0.81926741     0.13200
H953        H  0.38648518  0.65140831  0.76219761     0.10900
H954        H  0.42466557  0.66756699  0.80880687     0.12900
C955        C  0.28758572  0.61115102  0.61966940     0.19000
C956        C  0.30559841  0.61344462  0.60233764    -0.19100
C957        C  0.32303106  0.61306019  0.61709461    -0.11400
C958        C  0.32278599  0.61009177  0.64972046     0.21200
C959        C  0.30519325  0.60859610  0.66732817    -0.20700
C960        C  0.28768619  0.60895845  0.65253688    -0.11600
C961        C  0.34046633  0.60837936  0.66605634    -0.15700
C962        C  0.35330986  0.60184018  0.65151104    -0.29600
C963        C  0.26888541  0.61015086  0.60203246    -0.03800
C964        C  0.25151113  0.61021788  0.61524737    -0.40400
H965        H  0.30612865  0.61536754  0.57708206     0.12400
H966        H  0.33663907  0.61515377  0.60276998     0.12000
H967        H  0.30469996  0.60653502  0.69254902     0.11500
H968        H  0.27419202  0.60697669  0.66698927     0.11700
H969        H  0.34225946  0.61161849  0.69122878     0.14400
H970        H  0.35115481  0.59761635  0.62668496     0.13200
H971        H  0.26927407  0.60879661  0.57657950     0.10900
H972        H  0.25046270  0.61164782  0.64050270     0.12900
C973        C  0.40954027  0.71824671  0.30641513     0.19000
C974        C  0.39164411  0.69720905  0.30992857    -0.19100
C975        C  0.39408478  0.67894696  0.30534747    -0.11400
C976        C  0.41462988  0.68142766  0.29776080     0.21200
C977        C  0.43267024  0.70247246  0.29504279    -0.20700
C978        C  0.43013946  0.72075148  0.29902211    -0.11600
C979        C  0.41761998  0.66228907  0.29301896    -0.15700
C980        C  0.40240571  0.64407621  0.27846198    -0.29600
C981        C  0.40653744  0.73726189  0.31253469    -0.03800
C982        C  0.41787625  0.75615039  0.29721631    -0.40400
H983        H  0.37572578  0.69491559  0.31611986     0.12400
H984        H  0.37997772  0.66290468  0.30835152     0.12000
H985        H  0.44867962  0.70474569  0.28954599     0.11500
H986        H  0.44439985  0.73680346  0.29708811     0.11700
H987        H  0.43312841  0.66372102  0.29967507     0.14400
H988        H  0.38774656  0.64341979  0.26931867     0.13200
H989        H  0.39441850  0.73551173  0.32987283     0.10900
H990        H  0.42909773  0.75757155  0.27861152     0.12900
C991        C  0.30821540  0.57188977  0.12048087     0.19000
C992        C  0.30536972  0.57999545  0.09207865    -0.19100
C993        C  0.28640817  0.58129152  0.08677410    -0.11400
C994        C  0.26984261  0.57420915  0.10976538     0.21200
C995        C  0.27237121  0.56518061  0.13743574    -0.20700
C996        C  0.29123349  0.56399564  0.14273812    -0.11600
C997        C  0.24926619  0.57498387  0.10585740    -0.15700
C998        C  0.24607765  0.58701753  0.08453936    -0.29600
C999        C  0.32909698  0.57229639  0.12743241    -0.03800
C1000       C  0.33751822  0.57734046  0.15660261    -0.40400
H1001       H  0.31806246  0.58584799  0.07436503     0.12400
H1002       H  0.28481135  0.58768942  0.06466704     0.12000
H1003       H  0.25974805  0.55917102  0.15526976     0.11500
H1004       H  0.29253513  0.55692124  0.16442995     0.11700
H1005       H  0.23601023  0.56517098  0.12187977     0.14400
H1006       H  0.25904612  0.59739662  0.06859276     0.13200
H1007       H  0.33778202  0.56923025  0.10868400     0.10900
H1008       H  0.32917149  0.58177568  0.17428037     0.12900
C1009       C  0.40995181  0.55775216  0.00453763     0.19000
C1010       C  0.40258606  0.56838309  0.98453871    -0.19100
C1011       C  0.40743768  0.57028293  0.95236631    -0.11400
C1012       C  0.42003549  0.56172914  0.93933951     0.21200
C1013       C  0.42712971  0.55082062  0.95920987    -0.20700
C1014       C  0.42232129  0.54895759  0.99140594    -0.11600
C1015       C  0.42553607  0.56320446  0.90516761    -0.15700
C1016       C  0.42562860  0.57818831  0.88586321    -0.29600
C1017       C  0.40527944  0.55726387  0.03894376    -0.03800
C1018       C  0.40779687  0.54452530  0.05987149    -0.40400
H1019       H  0.39299465  0.57528478  0.99386414     0.12400
H1020       H  0.40101521  0.57820449  0.93785759     0.12000
H1021       H  0.43675633  0.54396942  0.94984795     0.11500
H1022       H  0.42877601  0.54102844  0.00579959     0.11700
H1023       H  0.43004984  0.55165040  0.89566895     0.14400
H1024       H  0.42197528  0.59039442  0.89506962     0.13200
H1025       H  0.39969042  0.56820675  0.04748437     0.10900
H1026       H  0.41278117  0.53300383  0.05209426     0.12900
C1027       C  0.42980469  0.57442361  0.43980467     0.19000
C1028       C  0.42383325  0.55687883  0.45995920    -0.19100
C1029       C  0.42033596  0.55874337  0.49190760    -0.11400
C1030       C  0.42323107  0.57848328  0.50475750     0.21200
C1031       C  0.42917867  0.59607422  0.48461660    -0.20700
C1032       C  0.43257535  0.59416328  0.45251254    -0.11600
C1033       C  0.41985253  0.58099324  0.53885293    -0.15700
C1034       C  0.42201633  0.56869472  0.56072557    -0.29600
C1035       C  0.43295956  0.57137090  0.40584413    -0.03800
C1036       C  0.43091188  0.58317220  0.38305383    -0.40400
H1037       H  0.42146121  0.54147260  0.45082669     0.12400
H1038       H  0.41495289  0.54447519  0.50620539     0.12000
H1039       H  0.43148470  0.61143709  0.49382601     0.11500
H1040       H  0.43768903  0.60827912  0.43796826     0.11700
H1041       H  0.41610435  0.59355329  0.54614535     0.14400
H1042       H  0.42705745  0.55705232  0.55375425     0.13200
H1043       H  0.43581189  0.55809423  0.39926515     0.10900
H1044       H  0.42689587  0.59571571  0.38906965     0.12900
C1045       C  0.59559492  0.27802178  0.04373523     0.19000
C1046       C  0.60037563  0.29498398  0.06545549    -0.19100
C1047       C  0.59929881  0.31335444  0.05686838    -0.11400
C1048       C  0.59327591  0.31521345  0.02620080     0.21200
C1049       C  0.58866788  0.29838442  0.00427419    -0.20700
C1050       C  0.58971094  0.27989592  0.01291114    -0.11600
C1051       C  0.59267633  0.33485627  0.01585757    -0.15700
C1052       C  0.59075114  0.34897581  0.03552694    -0.29600
C1053       C  0.59705027  0.25899309  0.05495882    -0.03800
C1054       C  0.59249182  0.24080132  0.03823850    -0.40400
H1055       H  0.60511630  0.29410739  0.08931733     0.12400
H1056       H  0.60367514  0.32619573  0.07420909     0.12000
H1057       H  0.58420282  0.29953381  0.98036414     0.11500
H1058       H  0.58598178  0.26732129  0.99536924     0.11700
H1059       H  0.59342605  0.33753606  0.99068620     0.14400
H1060       H  0.58859809  0.34604545  0.06057616     0.13200
H1061       H  0.60191143  0.26000461  0.07939261     0.10900
H1062       H  0.58736128  0.23877937  0.01388292     0.12900
C1063       C  0.72727189  0.42242912  0.87205471     0.19000
C1064       C  0.71984079  0.42124473  0.90303074    -0.19100
C1065       C  0.70124444  0.42303054  0.90948053    -0.11400
C1066       C  0.68986056  0.42633654  0.88500741     0.21200
C1067       C  0.69782353  0.42838407  0.85428257    -0.20700
C1068       C  0.71621446  0.42639741  0.84781764    -0.11600
C1069       C  0.66992746  0.42812093  0.89066403    -0.15700
C1070       C  0.65569063  0.41740931  0.91381952    -0.29600
C1071       C  0.74701484  0.42039453  0.86538288    -0.03800
C1072       C  0.74928833  0.41217886  0.83782298    -0.40400
H1073       H  0.72830632  0.41871034  0.92222159     0.12400
H1074       H  0.69602465  0.42212483  0.93364272     0.12000
H1075       H  0.68964141  0.43132673  0.83510342     0.11500
H1076       H  0.72194671  0.42838715  0.82380079     0.11700
H1077       H  0.66627123  0.43751139  0.87429706     0.14400
H1078       H  0.65867090  0.40701997  0.92911140     0.13200
H1079       H  0.75988443  0.42607674  0.88294633     0.10900
H1080       H  0.73588294  0.40576346  0.82106112     0.12900
C1081       C  0.50998072  0.53419134  0.83838635     0.19000
C1082       C  0.51092539  0.53416034  0.87131437    -0.19100
C1083       C  0.52210419  0.52526640  0.88665788    -0.11400
C1084       C  0.53269211  0.51606960  0.86933295     0.21200
C1085       C  0.53235248  0.51674931  0.83639124    -0.20700
C1086       C  0.52113799  0.52560236  0.82105052    -0.11600
C1087       C  0.54235012  0.50376804  0.88415267    -0.15700
C1088       C  0.54407437  0.50208690  0.91539300    -0.29600
C1089       C  0.49586582  0.54176044  0.82343236    -0.03800
C1090       C  0.49549211  0.54493405  0.79238881    -0.40400
H1091       H  0.50245072  0.54054355  0.88533582     0.12400
H1092       H  0.52158290  0.52504083  0.91200166     0.12000
H1093       H  0.54019548  0.50969966  0.82234119     0.11500
H1094       H  0.52068211  0.52479365  0.79569850     0.11700
H1095       H  0.54680877  0.49433197  0.86849016     0.14400
H1096       H  0.54001517  0.51134915  0.93183866     0.13200
H1097       H  0.48468927  0.54404891  0.83859887     0.10900
H1098       H  0.50665377  0.54316905  0.77664893     0.12900
C1099       C  0.44043422  0.45867407  0.11649357     0.19000
C1100       C  0.44131621  0.45736096  0.08361868    -0.19100
C1101       C  0.45254803  0.44793904  0.06924287    -0.11400
C1102       C  0.46317527  0.43959994  0.08755775     0.21200
C1103       C  0.46065805  0.43917888  0.12032030    -0.20700
C1104       C  0.44944877  0.44864507  0.13472239    -0.11600
C1105       C  0.47815678  0.43263392  0.07360374    -0.15700
C1106       C  0.48956721  0.44143412  0.04715769    -0.29600
C1107       C  0.43127173  0.47181549  0.13054452    -0.03800
C1108       C  0.43710625  0.48145687  0.15912198    -0.40400
H1109       H  0.43410328  0.46450691  0.06896808     0.12400
H1110       H  0.45327385  0.44768641  0.04385301     0.12000
H1111       H  0.46825631  0.43240658  0.13493814     0.11500
H1112       H  0.44832827  0.44844606  0.16007486     0.11700
H1113       H  0.48189167  0.42208415  0.08735709     0.14400
H1114       H  0.48695750  0.45303365  0.03421661     0.13200
H1115       H  0.42158543  0.47593325  0.11532199     0.10900
H1116       H  0.44777458  0.47858899  0.17409212     0.12900
C1117       C  0.61496657  0.28532264  0.55193778     0.19000
C1118       C  0.62047533  0.30321793  0.57215518    -0.19100
C1119       C  0.61953705  0.32139276  0.56190077    -0.11400
C1120       C  0.61290842  0.32204607  0.53106015     0.21200
C1121       C  0.60780483  0.30437490  0.51061728    -0.20700
C1122       C  0.60868524  0.28614852  0.52088957    -0.11600
C1123       C  0.61150562  0.34091485  0.51903050    -0.15700
C1124       C  0.60943364  0.35547821  0.53742728    -0.29600
C1125       C  0.61525779  0.26605235  0.56492543    -0.03800
C1126       C  0.61173727  0.24817396  0.54832512    -0.40400
H1127       H  0.62547934  0.30312812  0.59614446     0.12400
H1128       H  0.62425504  0.33490803  0.57813980     0.12000
H1129       H  0.60278377  0.30452464  0.48665682     0.11500
H1130       H  0.60411280  0.27278646  0.50446210     0.11700
H1131       H  0.61124443  0.34230548  0.49365051     0.14400
H1132       H  0.60851395  0.35390530  0.56277927     0.13200
H1133       H  0.61812687  0.26650555  0.59006620     0.10900
H1134       H  0.60906919  0.24701599  0.52316731     0.12900
C1135       C  0.73127891  0.42375907  0.35806945     0.19000
C1136       C  0.72316398  0.41987366  0.38880557    -0.19100
C1137       C  0.70491171  0.42173119  0.39669684    -0.11400
C1138       C  0.69445334  0.42761443  0.37390384     0.21200
C1139       C  0.70321823  0.43252290  0.34355078    -0.20700
C1140       C  0.72141768  0.43056353  0.33561862    -0.11600
C1141       C  0.67456000  0.42893960  0.38131722    -0.15700
C1142       C  0.66012247  0.41610147  0.40291874    -0.29600
C1143       C  0.75029477  0.42105581  0.35021304    -0.03800
C1144       C  0.75310507  0.41506758  0.32130027    -0.40400
H1145       H  0.73078449  0.41509766  0.40664150     0.12400
H1146       H  0.69918349  0.41873909  0.42073305     0.12000
H1147       H  0.69575518  0.43754505  0.32581354     0.11500
H1148       H  0.72783206  0.43460308  0.31200027     0.11700
H1149       H  0.67142313  0.44014238  0.36818357     0.14400
H1150       H  0.66274171  0.40417475  0.41493800     0.13200
H1151       H  0.76189063  0.42353698  0.36872380     0.10900
H1152       H  0.74097584  0.41155586  0.30317324     0.12900
C1153       C  0.59122498  0.43847289  0.76154140     0.19000
C1154       C  0.59236737  0.42207790  0.74418120    -0.19100
C1155       C  0.58856460  0.41991561  0.71173281    -0.11400
C1156       C  0.58391416  0.43442678  0.69569906     0.21200
C1157       C  0.58321921  0.45111145  0.71297945    -0.20700
C1158       C  0.58700967  0.45325883  0.74545045    -0.11600
C1159       C  0.57934633  0.43235313  0.66122848    -0.15700
C1160       C  0.58734675  0.42311028  0.64133524    -0.29600
C1161       C  0.59372327  0.43922379  0.79639646    -0.03800
C1162       C  0.58342712  0.44653647  0.81542503    -0.40400
H1163       H  0.59553925  0.41046440  0.75592475     0.12400
H1164       H  0.58870130  0.40645872  0.69955480     0.12000
H1165       H  0.57983064  0.46258936  0.70128862     0.11500
H1166       H  0.58666905  0.46656351  0.75780528     0.11700
H1167       H  0.57003212  0.43943800  0.65186359     0.14400
H1168       H  0.59793151  0.41738876  0.65028317     0.13200
H1169       H  0.60256711  0.43189328  0.80664745     0.10900
H1170       H  0.57325597  0.45237073  0.80520288     0.12900
C1171       C  0.57050823  0.41973925  0.19426822     0.19000
C1172       C  0.58968084  0.42912436  0.21245957    -0.19100
C1173       C  0.58911373  0.43327387  0.24468079    -0.11400
C1174       C  0.56918762  0.42779441  0.25976767     0.21200
C1175       C  0.55003073  0.41844886  0.24155656    -0.20700
C1176       C  0.55059896  0.41430339  0.20932226    -0.11600
C1177       C  0.56779644  0.43166033  0.29422648    -0.15700
C1178       C  0.58255868  0.43270333  0.31510778    -0.29600
C1179       C  0.57194788  0.41586287  0.15986457    -0.03800
C1180       C  0.55708711  0.41435839  0.13873059    -0.40400
H1181       H  0.60526137  0.43357832  0.20159139     0.12400
H1182       H  0.60440913  0.44110685  0.25744770     0.12000
H1183       H  0.53445958  0.41401327  0.25242820     0.11500
H1184       H  0.53532088  0.40651973  0.19652016     0.11700
H1185       H  0.55372334  0.43257136  0.30277424     0.14400
H1186       H  0.59590162  0.43045675  0.30688067     0.13200
H1187       H  0.58639152  0.41559890  0.15143895     0.10900
H1188       H  0.54337539  0.41611960  0.14652714     0.12900
C1189       C  0.50800148  0.52756442  0.34067830     0.19000
C1190       C  0.50717132  0.52534991  0.37350842    -0.19100
C1191       C  0.51782524  0.51574829  0.38858385    -0.11400
C1192       C  0.52978656  0.50813141  0.37112308     0.21200
C1193       C  0.53113382  0.51089250  0.33842962    -0.20700
C1194       C  0.52050975  0.52049788  0.32335926    -0.11600
C1195       C  0.53971786  0.49586368  0.38542600    -0.15700
C1196       C  0.54237107  0.49466326  0.41656340    -0.29600
C1197       C  0.49441720  0.53588025  0.32568231    -0.03800
C1198       C  0.49289171  0.53774293  0.29441080    -0.40400
H1199       H  0.49767265  0.53052003  0.38759298     0.12400
H1200       H  0.51589056  0.51371141  0.41370098     0.12000
H1201       H  0.54015065  0.50517934  0.32427664     0.11500
H1202       H  0.52189720  0.52175042  0.29814288     0.11700
H1203       H  0.54454485  0.48688765  0.36944323     0.14400
H1204       H  0.53827443  0.50386313  0.43310193     0.13200
H1205       H  0.48408153  0.53928198  0.34106464     0.10900
H1206       H  0.50271530  0.53428657  0.27825636     0.12900
C1207       C  0.49115553  0.46909951  0.58584106     0.19000
C1208       C  0.47850764  0.47744401  0.57333796    -0.19100
C1209       C  0.46850301  0.48594633  0.59304973    -0.11400
C1210       C  0.47109695  0.48651252  0.62593048     0.21200
C1211       C  0.48360055  0.47800001  0.63845866    -0.20700
C1212       C  0.49343685  0.46930632  0.61875129    -0.11600
C1213       C  0.46311526  0.49798924  0.64733326    -0.15700
C1214       C  0.44647978  0.50135490  0.64003692    -0.29600
C1215       C  0.50337984  0.46228707  0.56396806    -0.03800
C1216       C  0.51007530  0.44820194  0.57191385    -0.40400
H1217       H  0.47675171  0.47782974  0.54811943     0.12400
H1218       H  0.45965125  0.49297295  0.58225584     0.12000
H1219       H  0.48621938  0.47856481  0.66359341     0.11500
H1220       H  0.50360463  0.46370627  0.62937996     0.11700
H1221       H  0.47198791  0.50481004  0.66916804     0.14400
H1222       H  0.43700712  0.49398687  0.61885245     0.13200
H1223       H  0.50745831  0.46957291  0.54084894     0.10900
H1224       H  0.50531284  0.44016996  0.59444742     0.12900
loop_ 
_geom_bond_atom_site_label_1 
_geom_bond_atom_site_label_2 
_geom_bond_distance 
_geom_bond_site_symmetry_2 
_ccdc_geom_bond_type 
O1           Mg3   2.116       .  S
O1           Mg9   2.144       .  S
O1           C36   1.238       .  S
C2           O15   1.235       .  S
C2           O39   1.268       .  A
C2           H41   1.081       .  S
Mg3          O32   2.144       .  S
Mg3          O47   2.321       .  S
Mg3          O43   2.235       .  S
Mg3          O14   2.315       .  S
O4          Mg46   2.164       .  S
O4          Mg29   2.142       .  S
O4           C25   1.235       .  S
O5           C36   1.270       .  A
O5          Mg29   2.288       .  S
C6            O8   1.270       .  A
C6           O20   1.280       .  A
C6         C1216   1.484       .  S
O7           C35   1.271       .  A
O7           Mg9   2.297       .  S
O8          Mg40   2.254       .  S
Mg9          O15   2.117       .  S
Mg9          O23   2.244       .  S
Mg9          O11   2.262       .  S
C10          O48   1.275       .  A
C10          O16   1.281       .  A
C10        C1196   1.485       .  S
O11          C18   1.269       .  A
H12          C25   1.081       .  S
C13          O27   1.238       .  S
C13          O28   1.274       .  A
C13          H38   1.081       .  S
O14          C37   1.273       .  A
O15         Mg29   2.154       .  S
O16         Mg46   2.337       .  S
C17          O30   1.282       .  A
C17          O22   1.274       .  A
C17        C1178   1.485       .  S
C18          O45   1.275       .  A
C18        C1142   1.471       .  S
Mg19         O26   2.170       .  S
Mg19         O27   2.166       .  S
Mg19         O20   2.345       .  S
Mg19         O21   2.293       .  S
Mg19         O48   2.279       .  S
O21          C25   1.269       .  A
O22         Mg29   2.284       .  S
O23          C42   1.270       .  A
O24          C44   1.280       .  A
O24         Mg40   2.355       .  S
O26         Mg40   2.151       .  S
O26          C37   1.237       .  S
O27         Mg46   2.188       .  S
O28         Mg40   2.317       .  S
Mg29         O45   2.293       .  S
O30         Mg46   2.338       .  S
H31          C36   1.081       .  S
O32         Mg40   2.141       .  S
O32          C35   1.238       .  S
H33          C35   1.081       .  S
H34          C37   1.081       .  S
O39         Mg46   2.286       .  S
C42          O47   1.275       .  A
C42        C1124   1.479       .  S
O43          C44   1.268       .  A
C44        C1160   1.479       .  S
O49         Mg51   2.155   1_556  S
O49         Mg57   2.146       .  S
O49          C84   1.239       .  S
C50          O63   1.235       .  S
C50          O87   1.268       .  A
C50          H89   1.081       .  S
Mg51         O80   2.158       .  S
Mg51         O95   2.331       .  S
Mg51         O91   2.307       .  S
Mg51         O62   2.296       .  S
O52         Mg94   2.152       .  S
O52         Mg77   2.150       .  S
O52          C73   1.237       .  S
O53          C84   1.274       .  A
O53         Mg77   2.310       .  S
C54          O56   1.273       .  A
C54          O68   1.273       .  A
C54        C1106   1.477       .  S
O55          C83   1.272   1_556  A
O55         Mg57   2.295       .  S
O56         Mg88   2.277       .  S
Mg57         O63   2.128       .  S
Mg57         O71   2.236       .  S
Mg57         O59   2.290       .  S
C58          O96   1.270       .  A
C58          O64   1.276       .  A
C58        C1088   1.480       .  S
O59          C66   1.273       .  A
H60          C73   1.081       .  S
C61          O75   1.238       .  S
C61          O76   1.271       .  A
C61          H86   1.081       .  S
O62          C85   1.270       .  A
O63         Mg77   2.146       .  S
O64         Mg94   2.313       .  S
C65          O78   1.271       .  A
C65          O70   1.283       .  A
C65        C1162   1.478       .  S
C66          O93   1.278       .  A
C66        C1070   1.481       .  S
Mg67         O74   2.136   1_556  S
Mg67         O75   2.151       .  S
Mg67         O68   2.298   1_556  S
Mg67         O69   2.297       .  S
Mg67         O96   2.261       .  S
O69          C73   1.271       .  A
O70         Mg77   2.358       .  S
O71          C90   1.270   1_556  A
O72          C92   1.275       .  A
O72         Mg88   2.301       .  S
O74         Mg88   2.155       .  S
O74          C85   1.237       .  S
O75         Mg94   2.141       .  S
O76         Mg88   2.299   1_556  S
Mg77         O93   2.305       .  S
O78         Mg94   2.241       .  S
H79          C84   1.081   1_554  S
O80         Mg88   2.132       .  S
O80          C83   1.238       .  S
H81          C83   1.081       .  S
H82          C85   1.081       .  S
O87         Mg94   2.292       .  S
C90          O95   1.278       .  A
C90        C1052   1.478       .  S
O91          C92   1.278       .  A
C92        C1180   1.484       .  S
O97         Mg99   2.144       .  S
O97        Mg105   2.145       .  S
O97         C132   1.239       .  S
C98         O111   1.235       .  S
C98         O135   1.268       .  A
C98         H137   1.081       .  S
Mg99        O128   2.153       .  S
Mg99        O143   2.358       .  S
Mg99        O139   2.276       .  S
Mg99        O110   2.312       .  S
O100       Mg142   2.164       .  S
O100       Mg125   2.135       .  S
O100        C121   1.236       .  S
O101        C132   1.272       .  A
O101       Mg125   2.296       .  S
C102        O104   1.273       .  A
C102        O116   1.274       .  A
C102       C1108   1.478       .  S
O103        C131   1.270       .  A
O103       Mg105   2.292       .  S
O104       Mg136   2.270       .  S
Mg105       O111   2.123       .  S
Mg105       O119   2.227       .  S
Mg105       O107   2.279       .  S
C106        O144   1.272       .  A
C106        O112   1.279       .  A
C106       C1198   1.484       .  S
O107        C114   1.271       .  A
H108        C121   1.081       .  S
C109        O123   1.239       .  S
C109        O124   1.275       .  A
C109        H134   1.081       .  S
O110        C133   1.272       .  A
O111       Mg125   2.148       .  S
O112       Mg142   2.338       .  S
C113        O126   1.279       .  A
C113        O118   1.275       .  A
C113       C1036   1.479       .  S
C114        O141   1.273       .  A
C114        C980   1.473       .  S
Mg115       O122   2.158       .  S
Mg115       O123   2.156       .  S
Mg115       O116   2.305       .  S
Mg115       O117   2.288       .  S
Mg115       O144   2.263       .  S
O117        C121   1.269       .  A
O118       Mg125   2.298       .  S
O119        C138   1.268       .  A
O120        C140   1.279       .  A
O120       Mg136   2.331       .  S
O122       Mg136   2.146       .  S
O122        C133   1.237       .  S
O123       Mg142   2.166       .  S
O124       Mg136   2.316       .  S
Mg125       O141   2.280       .  S
O126       Mg142   2.297       .  S
H127        C132   1.081       .  S
O128       Mg136   2.133       .  S
O128        C131   1.237       .  S
H129        C131   1.081       .  S
H130        C133   1.081       .  S
O135       Mg142   2.289       .  S
C138        O143   1.280       .  A
C138       C1000   1.476       .  S
O139        C140   1.275       .  A
C140       C1018   1.485       .  S
O145       Mg147   2.141       .  S
O145       Mg153   2.151       .  S
O145        C180   1.239       .  S
C146        O159   1.238       .  S
C146        O183   1.272       .  A
C146        H185   1.081       .  S
Mg147       O176   2.164       .  S
Mg147       O191   2.317       .  S
Mg147       O187   2.292       .  S
Mg147       O158   2.300       .  S
O148       Mg190   2.152       .  S
O148       Mg173   2.139       .  S
O148        C169   1.235       .  S
O149        C180   1.272       .  A
O149       Mg173   2.302       .  S
C150        O152   1.270       .  A
C150        O164   1.278       .  A
C150       C1214   1.483       .  S
O151        C179   1.271       .  A
O151       Mg153   2.299       .  S
O152       Mg184   2.258       .  S
Mg153       O159   2.140       .  S
Mg153       O167   2.265       .  S
Mg153       O155   2.291       .  S
C154        O192   1.273       .  A
C154        O160   1.281       .  A
C154       C1090   1.479       .  S
O155        C162   1.274       .  A
H156        C169   1.081       .  S
C157        O171   1.237       .  S
C157        O172   1.270       .  A
C157        H182   1.081       .  S
O158        C181   1.271       .  A
O159       Mg173   2.151       .  S
O160       Mg190   2.338       .  S
C161        O174   1.277       .  A
C161        O166   1.277       .  A
C161       C1016   1.484       .  S
C162        O189   1.273       .  A
C162        C946   1.479       .  S
Mg163       O170   2.141       .  S
Mg163       O171   2.161       .  S
Mg163       O164   2.334       .  S
Mg163       O165   2.291       .  S
Mg163       O192   2.253       .  S
O165        C169   1.269       .  A
O166       Mg173   2.317       .  S
O167        C186   1.272       .  A
O168        C188   1.271       .  A
O168       Mg184   2.276       .  S
O170       Mg184   2.152       .  S
O170        C181   1.237       .  S
O171       Mg190   2.152       .  S
O172       Mg184   2.293       .  S
Mg173       O189   2.283       .  S
O174       Mg190   2.293       .  S
H175        C180   1.081       .  S
O176       Mg184   2.139       .  S
O176        C179   1.237       .  S
H177        C179   1.081       .  S
H178        C181   1.081       .  S
O183       Mg190   2.300       .  S
C186        O191   1.276       .  A
C186        C962   1.478       .  S
O187        C188   1.275       .  A
C188       C1034   1.474       .  S
O193       Mg195   2.131   1_554  S
O193       Mg201   2.134       .  S
O193        C228   1.238       .  S
C194        O207   1.237       .  S
C194        O231   1.269       .  A
C194        H233   1.081       .  S
Mg195       O224   2.146       .  S
Mg195       O239   2.340       .  S
Mg195       O235   2.246       .  S
Mg195       O206   2.314       .  S
O196       Mg238   2.139       .  S
O196       Mg221   2.128       .  S
O196        C217   1.236       .  S
O197        C228   1.271       .  A
O197       Mg221   2.297       .  S
C198        O200   1.275       .  A
C198        O212   1.278   1_556  A
C198        C928   1.485       .  S
O199        C227   1.274       .  A
O199       Mg201   2.316       .  S
O200       Mg232   2.277       .  S
Mg201       O207   2.110       .  S
Mg201       O215   2.229       .  S
Mg201       O203   2.319       .  S
C202        O240   1.277       .  A
C202        O208   1.272       .  A
C202        C874   1.472       .  S
O203        C210   1.275       .  A
H204        C217   1.081       .  S
C205        O219   1.235       .  S
C205        O220   1.270       .  A
C205        H230   1.081       .  S
O206        C229   1.274       .  A
O207       Mg221   2.140       .  S
O208       Mg238   2.278       .  S
C209        O222   1.274       .  A
C209        O214   1.275       .  A
C209        C908   1.480       .  S
C210        O237   1.274       .  A
C210        C998   1.483       .  S
Mg211       O218   2.162       .  S
Mg211       O219   2.151       .  S
Mg211       O212   2.326       .  S
Mg211       O213   2.296       .  S
Mg211       O240   2.294       .  S
O213        C217   1.270       .  A
O214       Mg221   2.310       .  S
O215        C234   1.269   1_554  A
O216        C236   1.276       .  A
O216       Mg232   2.326       .  S
O218       Mg232   2.159   1_554  S
O218        C229   1.238   1_554  S
O219       Mg238   2.146       .  S
O220       Mg232   2.300   1_554  S
Mg221       O237   2.263       .  S
O222       Mg238   2.270       .  S
H223        C228   1.081   1_556  S
O224       Mg232   2.162       .  S
O224        C227   1.239   1_556  S
H225        C227   1.081       .  S
H226        C229   1.081       .  S
O231       Mg238   2.282       .  S
C234        O239   1.277       .  A
C234        C856   1.482       .  S
O235        C236   1.271       .  A
C236        C892   1.481       .  S
O241       Mg243   2.125       .  S
O241       Mg249   2.145       .  S
O241        C276   1.235       .  S
C242        O255   1.237       .  S
C242        O279   1.270       .  A
C242        H281   1.081       .  S
Mg243       O272   2.150       .  S
Mg243       O287   2.308       .  S
Mg243       O283   2.252       .  S
Mg243       O254   2.307       .  S
O244       Mg286   2.152       .  S
O244       Mg269   2.148       .  S
O244        C265   1.235       .  S
O245        C276   1.269       .  A
O245       Mg269   2.291       .  S
C246        O248   1.269       .  A
C246        O260   1.280       .  A
C246        C820   1.476       .  S
O247        C275   1.272       .  A
O247       Mg249   2.304       .  S
O248       Mg280   2.238       .  S
Mg249       O255   2.137       .  S
Mg249       O263   2.276       .  S
Mg249       O251   2.322       .  S
C250        O288   1.279       .  A
C250        O256   1.273       .  A
C250        C836   1.484       .  S
O251        C258   1.279       .  A
H252        C265   1.081       .  S
C253        O267   1.235       .  S
C253        O268   1.269       .  A
C253        H278   1.081       .  S
O254        C277   1.273       .  A
O255       Mg269   2.156       .  S
O256       Mg286   2.288       .  S
C257        O270   1.270       .  A
C257        O262   1.277       .  A
C257        C910   1.475       .  S
C258        O285   1.274       .  A
C258        C800   1.479       .  S
Mg259       O266   2.169       .  S
Mg259       O267   2.163       .  S
Mg259       O260   2.333       .  S
Mg259       O261   2.300       .  S
Mg259       O288   2.325       .  S
O261        C265   1.270       .  A
O262       Mg269   2.321       .  S
O263        C282   1.275       .  A
O264        C284   1.276       .  A
O264       Mg280   2.320       .  S
O266       Mg280   2.170       .  S
O266        C277   1.238       .  S
O267       Mg286   2.141       .  S
O268       Mg280   2.294       .  S
Mg269       O285   2.269       .  S
O270       Mg286   2.250       .  S
H271        C276   1.081       .  S
O272       Mg280   2.144       .  S
O272        C275   1.238       .  S
H273        C275   1.081       .  S
H274        C277   1.081       .  S
O279       Mg286   2.289       .  S
C282        O287   1.274       .  A
C282        C964   1.481       .  S
O283        C284   1.269       .  A
C284        C890   1.478       .  S
O289       Mg291   2.135       .  S
O289       Mg297   2.140       .  S
O289        C324   1.237       .  S
C290        O303   1.238       .  S
C290        O327   1.269       .  A
C290        H329   1.081       .  S
Mg291       O320   2.151       .  S
Mg291       O335   2.322       .  S
Mg291       O331   2.260       .  S
Mg291       O302   2.309       .  S
O292       Mg334   2.138       .  S
O292       Mg317   2.125       .  S
O292        C313   1.236       .  S
O293        C324   1.271       .  A
O293       Mg317   2.297       .  S
C294        O296   1.273       .  A
C294        O308   1.282       .  A
C294        C838   1.486       .  S
O295        C323   1.274       .  A
O295       Mg297   2.311       .  S
O296       Mg328   2.266       .  S
Mg297       O303   2.105       .  S
Mg297       O311   2.226       .  S
Mg297       O299   2.273       .  S
C298        O336   1.278       .  A
C298        O304   1.270       .  A
C298        C872   1.467       .  S
O299        C306   1.270       .  A
H300        C313   1.081       .  S
C301        O315   1.236       .  S
C301        O316   1.270       .  A
C301        H326   1.081       .  S
O302        C325   1.272       .  A
O303       Mg317   2.156       .  S
O304       Mg334   2.260       .  S
C305        O318   1.274       .  A
C305        O310   1.278       .  A
C305        C782   1.483       .  S
C306        O333   1.275       .  A
C306        C748   1.472       .  S
Mg307       O314   2.165       .  S
Mg307       O315   2.166       .  S
Mg307       O308   2.347       .  S
Mg307       O309   2.296       .  S
Mg307       O336   2.314       .  S
O309        C313   1.270       .  A
O310       Mg317   2.315       .  S
O311        C330   1.265       .  A
O312        C332   1.278       .  A
O312       Mg328   2.331       .  S
O314       Mg328   2.161       .  S
O314        C325   1.237       .  S
O315       Mg334   2.161       .  S
O316       Mg328   2.299       .  S
Mg317       O333   2.289       .  S
O318       Mg334   2.284       .  S
H319        C324   1.081       .  S
O320       Mg328   2.154       .  S
O320        C323   1.239       .  S
H321        C323   1.081       .  S
H322        C325   1.081       .  S
O327       Mg334   2.282       .  S
C330        O335   1.276       .  A
C330       C1144   1.470       .  S
O331        C332   1.270       .  A
C332        C766   1.483       .  S
O337       Mg339   2.137       .  S
O337       Mg345   2.122       .  S
O337        C372   1.238       .  S
C338        O351   1.236       .  S
C338        O375   1.268       .  A
C338        H377   1.081       .  S
Mg339       O368   2.144       .  S
Mg339       O383   2.370       .  S
Mg339       O379   2.255       .  S
Mg339       O350   2.321       .  S
O340       Mg382   2.146       .  S
O340       Mg365   2.124       .  S
O340        C361   1.236       .  S
O341        C372   1.272       .  A
O341       Mg365   2.302       .  S
C342        O344   1.276       .  A
C342        O356   1.276       .  A
C342        C926   1.482       .  S
O343        C371   1.276       .  A
O343       Mg345   2.323       .  S
O344       Mg376   2.294       .  S
Mg345       O351   2.115       .  S
Mg345       O359   2.231       .  S
Mg345       O347   2.313       .  S
C346        O384   1.277       .  A
C346        O352   1.271       .  A
C346        C818   1.474       .  S
O347        C354   1.276       .  A
H348        C361   1.081       .  S
C349        O363   1.237       .  S
C349        O364   1.272       .  A
C349        H374   1.081       .  S
O350        C373   1.275       .  A
O351       Mg365   2.145       .  S
O352       Mg382   2.266       .  S
C353        O366   1.273       .  A
C353        O358   1.277       .  A
C353        C764   1.481       .  S
C354        O381   1.271       .  A
C354        C728   1.477       .  S
Mg355       O362   2.174       .  S
Mg355       O363   2.161       .  S
Mg355       O356   2.313       .  S
Mg355       O357   2.289       .  S
Mg355       O384   2.315       .  S
O357        C361   1.269       .  A
O358       Mg365   2.317       .  S
O359        C378   1.267       .  A
O360        C380   1.279       .  A
O360       Mg376   2.341       .  S
O362       Mg376   2.154       .  S
O362        C373   1.238       .  S
O363       Mg382   2.151       .  S
O364       Mg376   2.307       .  S
Mg365       O381   2.262       .  S
O366       Mg382   2.275       .  S
H367        C372   1.081       .  S
O368       Mg376   2.172       .  S
O368        C371   1.240       .  S
H369        C371   1.081       .  S
H370        C373   1.081       .  S
O375       Mg382   2.279       .  S
C378        O383   1.281       .  A
C378       C1072   1.479       .  S
O379        C380   1.271       .  A
C380        C784   1.481       .  S
O385       Mg387   2.126       .  S
O385       Mg393   2.130       .  S
O385        C420   1.238       .  S
C386        O399   1.235       .  S
C386        O423   1.267       .  A
C386        H425   1.081       .  S
Mg387       O416   2.154       .  S
Mg387       O431   2.348       .  S
Mg387       O427   2.258   1_554  S
Mg387       O398   2.317       .  S
O388       Mg430   2.152       .  S
O388       Mg413   2.143       .  S
O388        C409   1.235       .  S
O389        C420   1.271       .  A
O389       Mg413   2.296       .  S
C390        O392   1.271       .  A
C390        O404   1.278       .  A
C390        C710   1.486       .  S
O391        C419   1.273       .  A
O391       Mg393   2.304       .  S
O392       Mg424   2.260       .  S
Mg393       O399   2.105       .  S
Mg393       O407   2.218       .  S
Mg393       O395   2.276       .  S
C394        O432   1.277       .  A
C394        O400   1.273       .  A
C394        C694   1.481       .  S
O395        C402   1.271       .  A
H396        C409   1.081       .  S
C397        O411   1.236       .  S
C397        O412   1.272       .  A
C397        H422   1.081       .  S
O398        C421   1.274       .  A
O399       Mg413   2.143       .  S
O400       Mg430   2.291       .  S
C401        O414   1.275       .  A
C401        O406   1.276       .  A
C401        C674   1.479       .  S
C402        O429   1.276       .  A
C402        C746   1.474       .  S
Mg403       O410   2.171       .  S
Mg403       O411   2.159       .  S
Mg403       O404   2.336       .  S
Mg403       O405   2.297       .  S
Mg403       O432   2.304       .  S
O405        C409   1.269       .  A
O406       Mg413   2.311       .  S
O407        C426   1.268       .  A
O408        C428   1.274   1_554  A
O408       Mg424   2.309       .  S
O410       Mg424   2.155       .  S
O410        C421   1.238       .  S
O411       Mg430   2.166       .  S
O412       Mg424   2.308       .  S
Mg413       O429   2.296       .  S
O414       Mg430   2.275       .  S
H415        C420   1.081       .  S
O416       Mg424   2.150       .  S
O416        C419   1.239       .  S
H417        C419   1.081       .  S
H418        C421   1.081       .  S
O423       Mg430   2.281       .  S
C426        O431   1.278       .  A
C426       C1054   1.484       .  S
O427        C428   1.272       .  A
C428        C656   1.479       .  S
O433       Mg435   2.141       .  S
O433       Mg441   2.145       .  S
O433        C468   1.238       .  S
C434        O447   1.238       .  S
C434        O471   1.270       .  A
C434        H473   1.081       .  S
Mg435       O464   2.149       .  S
Mg435       O479   2.332       .  S
Mg435       O475   2.281       .  S
Mg435       O446   2.317       .  S
O436       Mg478   2.153       .  S
O436       Mg461   2.144       .  S
O436        C457   1.235       .  S
O437        C468   1.271       .  A
O437       Mg461   2.300       .  S
C438        O440   1.269       .  A
C438        O452   1.281       .  A
C438        C640   1.481       .  S
O439        C467   1.271       .  A
O439       Mg441   2.303       .  S
O440       Mg472   2.240       .  S
Mg441       O447   2.123       .  S
Mg441       O455   2.241       .  S
Mg441       O443   2.300       .  S
C442        O480   1.280       .  A
C442        O448   1.274       .  A
C442        C622   1.483       .  S
O443        C450   1.275       .  A
H444        C457   1.081       .  S
C445        O459   1.235       .  S
C445        O460   1.268       .  A
C445        H470   1.081       .  S
O446        C469   1.274       .  A
O447       Mg461   2.146       .  S
O448       Mg478   2.292       .  S
C449        O462   1.273       .  A
C449        O454   1.274       .  A
C449        C658   1.475       .  S
C450        O477   1.274       .  A
C450        C730   1.484       .  S
Mg451       O458   2.175       .  S
Mg451       O459   2.163       .  S
Mg451       O452   2.354       .  S
Mg451       O453   2.299       .  S
Mg451       O480   2.321       .  S
O453        C457   1.269       .  A
O454       Mg461   2.297       .  S
O455        C474   1.271       .  A
O456        C476   1.272       .  A
O456       Mg472   2.293       .  S
O458       Mg472   2.164       .  S
O458        C469   1.238       .  S
O459       Mg478   2.144       .  S
O460       Mg472   2.289       .  S
Mg461       O477   2.291       .  S
O462       Mg478   2.276       .  S
H463        C468   1.081       .  S
O464       Mg472   2.146       .  S
O464        C467   1.237       .  S
H465        C467   1.081       .  S
H466        C469   1.081       .  S
O471       Mg478   2.292       .  S
C474        O479   1.277       .  A
C474       C1126   1.480       .  S
O475        C476   1.273       .  A
C476        C676   1.477       .  S
O481       Mg483   2.128       .  S
O481       Mg489   2.145       .  S
O481        C516   1.238       .  S
C482        O495   1.238       .  S
C482        O519   1.271       .  A
C482        H521   1.081       .  S
Mg483       O512   2.150       .  S
Mg483       O527   2.325       .  S
Mg483       O523   2.268       .  S
Mg483       O494   2.318       .  S
O484       Mg526   2.140       .  S
O484       Mg509   2.130       .  S
O484        C505   1.234       .  S
O485        C516   1.272       .  A
O485       Mg509   2.299       .  S
C486        O488   1.269       .  A
C486        O500   1.280       .  A
C486        C638   1.480       .  S
O487        C515   1.272       .  A
O487       Mg489   2.308       .  S
O488       Mg520   2.242       .  S
Mg489       O495   2.132       .  S
Mg489       O503   2.265       .  S
Mg489       O491   2.308       .  S
C490        O528   1.280       .  A
C490        O496   1.276       .  A
C490        C692   1.480       .  S
O491        C498   1.276       .  A
H492        C505   1.081       .  S
C493        O507   1.235       .  S
C493        O508   1.268       .  A
C493        H518   1.081       .  S
O494        C517   1.274       .  A
O495       Mg509   2.147       .  S
O496       Mg526   2.297       .  S
C497        O510   1.275       .  A
C497        O502   1.275       .  A
C497        C602   1.480       .  S
C498        O525   1.272       .  A
C498        C982   1.476       .  S
Mg499       O506   2.177       .  S
Mg499       O507   2.161       .  S
Mg499       O500   2.340       .  S
Mg499       O501   2.294       .  S
Mg499       O528   2.315       .  S
O501        C505   1.268       .  A
O502       Mg509   2.307       .  S
O503        C522   1.273       .  A
O504        C524   1.271       .  A
O504       Mg520   2.291       .  S
O506       Mg520   2.165       .  S
O506        C517   1.238       .  S
O507       Mg526   2.143       .  S
O508       Mg520   2.290       .  S
Mg509       O525   2.263       .  S
O510       Mg526   2.281       .  S
H511        C516   1.081       .  S
O512       Mg520   2.150       .  S
O512        C515   1.238       .  S
H513        C515   1.081       .  S
H514        C517   1.081       .  S
O519       Mg526   2.292       .  S
C522        O527   1.276       .  A
C522        C802   1.483       .  S
O523        C524   1.271       .  A
C524        C586   1.473       .  S
O529       Mg531   2.132       .  S
O529       Mg537   2.145       .  S
O529        C564   1.238       .  S
C530        O543   1.236       .  S
C530        O567   1.268       .  A
C530        H569   1.081       .  S
Mg531       O560   2.156       .  S
Mg531       O575   2.359       .  S
Mg531       O571   2.269       .  S
Mg531       O542   2.322       .  S
O532       Mg574   2.150       .  S
O532       Mg557   2.131       .  S
O532        C553   1.235       .  S
O533        C564   1.270       .  A
O533       Mg557   2.291       .  S
C534        O536   1.274       .  A
C534        O548   1.278       .  A
C534        C712   1.486       .  S
O535        C563   1.272       .  A
O535       Mg537   2.306       .  S
O536       Mg568   2.272       .  S
Mg537       O543   2.107       .  S
Mg537       O551   2.218       .  S
Mg537       O539   2.295       .  S
C538        O576   1.279       .  A
C538        O544   1.275       .  A
C538        C620   1.484       .  S
O539        C546   1.272       .  A
H540        C553   1.081       .  S
C541        O555   1.236       .  S
C541        O556   1.271       .  A
C541        H566   1.081       .  S
O542        C565   1.275       .  A
O543       Mg557   2.147       .  S
O544       Mg574   2.293       .  S
C545        O558   1.276       .  A
C545        O550   1.273       .  A
C545        C584   1.475       .  S
C546        O573   1.273       .  A
C546        C944   1.476       .  S
Mg547       O554   2.184       .  S
Mg547       O555   2.161       .  S
Mg547       O548   2.330       .  S
Mg547       O549   2.291       .  S
Mg547       O576   2.322       .  S
O549        C553   1.268       .  A
O550       Mg557   2.287       .  S
O551        C570   1.268       .  A
O552        C572   1.276       .  A
O552       Mg568   2.316       .  S
O554       Mg568   2.159       .  S
O554        C565   1.238       .  S
O555       Mg574   2.154       .  S
O556       Mg568   2.304       .  S
Mg557       O573   2.272       .  S
O558       Mg574   2.283       .  S
H559        C564   1.081       .  S
O560       Mg568   2.160       .  S
O560        C563   1.237       .  S
H561        C563   1.081       .  S
H562        C565   1.081       .  S
O567       Mg574   2.282       .  S
C570        O575   1.280       .  A
C570        C854   1.485       .  S
O571        C572   1.273       .  A
C572        C604   1.481   1_556  S
C577        C585   1.486       .  S
C577        C578   1.401       .  A
C577        C582   1.408       .  A
C578        H587   1.083       .  S
C578        C579   1.399       .  A
C579        H588   1.080       .  S
C579        C580   1.411       .  A
C580        C583   1.488       .  S
C580        C581   1.402       .  A
C581        H589   1.083       .  S
C581        C582   1.397       .  A
C582        H590   1.082       .  S
C583        H591   1.087       .  S
C583        C584   1.344       .  D
C584        H592   1.083       .  S
C585        H593   1.086       .  S
C585        C586   1.345       .  D
C586        H594   1.085       .  S
C595        C603   1.494       .  S
C595        C596   1.405       .  A
C595        C600   1.410       .  A
C596        H605   1.084       .  S
C596        C597   1.399       .  A
C597        H606   1.081       .  S
C597        C598   1.408       .  A
C598        C601   1.491       .  S
C598        C599   1.404       .  A
C599        H607   1.084       .  S
C599        C600   1.400       .  A
C600        H608   1.079       .  S
C601        H609   1.087       .  S
C601        C602   1.348       .  D
C602        H610   1.085       .  S
C603        H611   1.087       .  S
C603        C604   1.349       .  D
C604        H612   1.083       .  S
C613        C621   1.497       .  S
C613        C614   1.403   1_545  A
C613        C618   1.411       .  A
C614        H623   1.084       .  S
C614        C615   1.400       .  A
C615        H624   1.081       .  S
C615        C616   1.410       .  A
C616        C619   1.497       .  S
C616        C617   1.404       .  A
C617        H625   1.083   1_565  S
C617        C618   1.404   1_565  A
C618        H626   1.081       .  S
C619        H627   1.086       .  S
C619        C620   1.347       .  D
C620        H628   1.085       .  S
C621        H629   1.087       .  S
C621        C622   1.346       .  D
C622        H630   1.085       .  S
C631        C639   1.494       .  S
C631        C632   1.403   1_545  A
C631        C636   1.411       .  A
C632        H641   1.083       .  S
C632        C633   1.402       .  A
C633        H642   1.082       .  S
C633        C634   1.410       .  A
C634        C637   1.490       .  S
C634        C635   1.401   1_565  A
C635        H643   1.083       .  S
C635        C636   1.400       .  A
C636        H644   1.082       .  S
C637        H645   1.087       .  S
C637        C638   1.345       .  D
C638        H646   1.086       .  S
C639        H647   1.086       .  S
C639        C640   1.345       .  D
C640        H648   1.086       .  S
C649        C657   1.488       .  S
C649        C650   1.405       .  A
C649        C654   1.407       .  A
C650        H659   1.084       .  S
C650        C651   1.402       .  A
C651        H660   1.081       .  S
C651        C652   1.409       .  A
C652        C655   1.486       .  S
C652        C653   1.401       .  A
C653        H661   1.084       .  S
C653        C654   1.394       .  A
C654        H662   1.081       .  S
C655        H663   1.087       .  S
C655        C656   1.345       .  D
C656        H664   1.085       .  S
C657        H665   1.087       .  S
C657        C658   1.347       .  D
C658        H666   1.085       .  S
C667        C675   1.490       .  S
C667        C668   1.404       .  A
C667        C672   1.408       .  A
C668        H677   1.083       .  S
C668        C669   1.401       .  A
C669        H678   1.082       .  S
C669        C670   1.407       .  A
C670        C673   1.486       .  S
C670        C671   1.402       .  A
C671        H679   1.084       .  S
C671        C672   1.397       .  A
C672        H680   1.081       .  S
C673        H681   1.087       .  S
C673        C674   1.346       .  D
C674        H682   1.086       .  S
C675        H683   1.086       .  S
C675        C676   1.346       .  D
C676        H684   1.084       .  S
C685        C693   1.493       .  S
C685        C686   1.401       .  A
C685        C690   1.410       .  A
C686        H695   1.084   1_545  S
C686        C687   1.400   1_545  A
C687        H696   1.077       .  S
C687        C688   1.413       .  A
C688        C691   1.501       .  S
C688        C689   1.406   1_565  A
C689        H697   1.084       .  S
C689        C690   1.402       .  A
C690        H698   1.081       .  S
C691        H699   1.087       .  S
C691        C692   1.348       .  D
C692        H700   1.081       .  S
C693        H701   1.087       .  S
C693        C694   1.345       .  D
C694        H702   1.085       .  S
C703        C711   1.496       .  S
C703        C704   1.406   1_556  A
C703        C708   1.407   1_565  A
C704        H713   1.084       .  S
C704        C705   1.402   1_565  A
C705        H714   1.080       .  S
C705        C706   1.408       .  A
C706        C709   1.498       .  S
C706        C707   1.407   1_554  A
C707        H715   1.084       .  S
C707        C708   1.402       .  A
C708        H716   1.081       .  S
C709        H717   1.087       .  S
C709        C710   1.353       .  D
C710        H718   1.083       .  S
C711        H719   1.087       .  S
C711        C712   1.352       .  D
C712        H720   1.084       .  S
C721        C729   1.490       .  S
C721        C722   1.405       .  A
C721        C726   1.408       .  A
C722        H731   1.084       .  S
C722        C723   1.398       .  A
C723        H732   1.082       .  S
C723        C724   1.406       .  A
C724        C727   1.488       .  S
C724        C725   1.404       .  A
C725        H733   1.083       .  S
C725        C726   1.401       .  A
C726        H734   1.081       .  S
C727        H735   1.087       .  S
C727        C728   1.347       .  D
C728        H736   1.085       .  S
C729        H737   1.087       .  S
C729        C730   1.350       .  D
C730        H738   1.084       .  S
C739        C747   1.484       .  S
C739        C740   1.401       .  A
C739        C744   1.409       .  A
C740        H749   1.083       .  S
C740        C741   1.401       .  A
C741        H750   1.083       .  S
C741        C742   1.409       .  A
C742        C745   1.482       .  S
C742        C743   1.399       .  A
C743        H751   1.083       .  S
C743        C744   1.396       .  A
C744        H752   1.083       .  S
C745        H753   1.087       .  S
C745        C746   1.340       .  D
C746        H754   1.087       .  S
C747        H755   1.087       .  S
C747        C748   1.342       .  D
C748        H756   1.088       .  S
C757        C765   1.497       .  S
C757        C758   1.404       .  A
C757        C762   1.412       .  A
C758        H767   1.084       .  S
C758        C759   1.398       .  A
C759        H768   1.080       .  S
C759        C760   1.408       .  A
C760        C763   1.494       .  S
C760        C761   1.405       .  A
C761        H769   1.084       .  S
C761        C762   1.403       .  A
C762        H770   1.079       .  S
C763        H771   1.087       .  S
C763        C764   1.350       .  D
C764        H772   1.084       .  S
C765        H773   1.087       .  S
C765        C766   1.348       .  D
C766        H774   1.083       .  S
C775        C783   1.495       .  S
C775        C776   1.406   1_556  A
C775        C780   1.409   1_556  A
C776        H785   1.084   1_554  S
C776        C777   1.403       .  A
C777        H786   1.081       .  S
C777        C778   1.409       .  A
C778        C781   1.491       .  S
C778        C779   1.402       .  A
C779        H787   1.084       .  S
C779        C780   1.398       .  A
C780        H788   1.080       .  S
C781        H789   1.087       .  S
C781        C782   1.348       .  D
C782        H790   1.085       .  S
C783        H791   1.087       .  S
C783        C784   1.348       .  D
C784        H792   1.084       .  S
C793        C801   1.490       .  S
C793        C794   1.403       .  A
C793        C798   1.408       .  A
C794        H803   1.083       .  S
C794        C795   1.397       .  A
C795        H804   1.080       .  S
C795        C796   1.409       .  A
C796        C799   1.494       .  S
C796        C797   1.406       .  A
C797        H805   1.083       .  S
C797        C798   1.402       .  A
C798        H806   1.081       .  S
C799        H807   1.087       .  S
C799        C800   1.349       .  D
C800        H808   1.083       .  S
C801        H809   1.087       .  S
C801        C802   1.349       .  D
C802        H810   1.084       .  S
C811        C819   1.491       .  S
C811        C812   1.402       .  A
C811        C816   1.412       .  A
C812        H821   1.083       .  S
C812        C813   1.394   1_455  A
C813        H822   1.082       .  S
C813        C814   1.408       .  A
C814        C817   1.489       .  S
C814        C815   1.402   1_655  A
C815        H823   1.083       .  S
C815        C816   1.403       .  A
C816        H824   1.080       .  S
C817        H825   1.086       .  S
C817        C818   1.343       .  D
C818        H826   1.087       .  S
C819        H827   1.087       .  S
C819        C820   1.344       .  D
C820        H828   1.083       .  S
C829        C837   1.500       .  S
C829        C830   1.404       .  A
C829        C834   1.412       .  A
C830        H839   1.084       .  S
C830        C831   1.400   1_655  A
C831        H840   1.082       .  S
C831        C832   1.409       .  A
C832        C835   1.498       .  S
C832        C833   1.404   1_455  A
C833        H841   1.083       .  S
C833        C834   1.406       .  A
C834        H842   1.080       .  S
C835        H843   1.086       .  S
C835        C836   1.347       .  D
C836        H844   1.085       .  S
C837        H845   1.087       .  S
C837        C838   1.349       .  D
C838        H846   1.083       .  S
C847        C855   1.489       .  S
C847        C848   1.407       .  A
C847        C852   1.405       .  A
C848        H857   1.083   1_556  S
C848        C849   1.399       .  A
C849        H858   1.080       .  S
C849        C850   1.405       .  A
C850        C853   1.489       .  S
C850        C851   1.407       .  A
C851        H859   1.084       .  S
C851        C852   1.399       .  A
C852        H860   1.080       .  S
C853        H861   1.087       .  S
C853        C854   1.355       .  D
C854        H862   1.084       .  S
C855        H863   1.087   1_556  S
C855        C856   1.352       .  D
C856        H864   1.084       .  S
C865        C873   1.488       .  S
C865        C866   1.401   1_455  A
C865        C870   1.411       .  A
C866        H875   1.084       .  S
C866        C867   1.398       .  A
C867        H876   1.080       .  S
C867        C868   1.412       .  A
C868        C871   1.490       .  S
C868        C869   1.400   1_655  A
C869        H877   1.083       .  S
C869        C870   1.397       .  A
C870        H878   1.080       .  S
C871        H879   1.087       .  S
C871        C872   1.339       .  D
C872        H880   1.084       .  S
C873        H881   1.087       .  S
C873        C874   1.342       .  D
C874        H882   1.084       .  S
C883        C891   1.487       .  S
C883        C884   1.402       .  A
C883        C888   1.407       .  A
C884        H893   1.084       .  S
C884        C885   1.396       .  A
C885        H894   1.079       .  S
C885        C886   1.409       .  A
C886        C889   1.494       .  S
C886        C887   1.406       .  A
C887        H895   1.084       .  S
C887        C888   1.402       .  A
C888        H896   1.081       .  S
C889        H897   1.089       .  S
C889        C890   1.348       .  D
C890        H898   1.085       .  S
C891        H899   1.088       .  S
C891        C892   1.348       .  D
C892        H900   1.085       .  S
C901        C909   1.490       .  S
C901        C902   1.404       .  A
C901        C906   1.408       .  A
C902        H911   1.083       .  S
C902        C903   1.402       .  A
C903        H912   1.081       .  S
C903        C904   1.409       .  A
C904        C907   1.487       .  S
C904        C905   1.402       .  A
C905        H913   1.084       .  S
C905        C906   1.395       .  A
C906        H914   1.081       .  S
C907        H915   1.087       .  S
C907        C908   1.346       .  D
C908        H916   1.085       .  S
C909        H917   1.087       .  S
C909        C910   1.346       .  D
C910        H918   1.085       .  S
C919        C927   1.498       .  S
C919        C920   1.406       .  A
C919        C924   1.411   1_455  A
C920        H929   1.084       .  S
C920        C921   1.401   1_455  A
C921        H930   1.082       .  S
C921        C922   1.407       .  A
C922        C925   1.493       .  S
C922        C923   1.404       .  A
C923        H931   1.084       .  S
C923        C924   1.402       .  A
C924        H932   1.079       .  S
C925        H933   1.087       .  S
C925        C926   1.349       .  D
C926        H934   1.085       .  S
C927        H935   1.087       .  S
C927        C928   1.351       .  D
C928        H936   1.083   1_556  S
C937        C945   1.483       .  S
C937        C938   1.404       .  A
C937        C942   1.406       .  A
C938        H947   1.083       .  S
C938        C939   1.399       .  A
C939        H948   1.083       .  S
C939        C940   1.406       .  A
C940        C943   1.484       .  S
C940        C941   1.403       .  A
C941        H949   1.083       .  S
C941        C942   1.399       .  A
C942        H950   1.083       .  S
C943        H951   1.086       .  S
C943        C944   1.345       .  D
C944        H952   1.085       .  S
C945        H953   1.086       .  S
C945        C946   1.347       .  D
C946        H954   1.085       .  S
C955        C963   1.492       .  S
C955        C956   1.404       .  A
C955        C960   1.410       .  A
C956        H965   1.084       .  S
C956        C957   1.397       .  A
C957        H966   1.081       .  S
C957        C958   1.406       .  A
C958        C961   1.489       .  S
C958        C959   1.404       .  A
C959        H967   1.083       .  S
C959        C960   1.402       .  A
C960        H968   1.080       .  S
C961        H969   1.087       .  S
C961        C962   1.349       .  D
C962        H970   1.084       .  S
C963        H971   1.087       .  S
C963        C964   1.347       .  D
C964        H972   1.083       .  S
C973        C981   1.482       .  S
C973        C974   1.402       .  A
C973        C978   1.408       .  A
C974        H983   1.083       .  S
C974        C975   1.397       .  A
C975        H984   1.083       .  S
C975        C976   1.406       .  A
C976        C979   1.482       .  S
C976        C977   1.402       .  A
C977        H985   1.083       .  S
C977        C978   1.399       .  A
C978        H986   1.083       .  S
C979        H987   1.086       .  S
C979        C980   1.343       .  D
C980        H988   1.086       .  S
C981        H989   1.086       .  S
C981        C982   1.344       .  D
C982        H990   1.086       .  S
C991        C999   1.490       .  S
C991        C992   1.404       .  A
C991        C996   1.407       .  A
C992       H1001   1.083       .  S
C992        C993   1.406       .  A
C993       H1002   1.081       .  S
C993        C994   1.411       .  A
C994        C997   1.490       .  S
C994        C995   1.402       .  A
C995       H1003   1.083       .  S
C995        C996   1.394       .  A
C996       H1004   1.083       .  S
C997       H1005   1.087       .  S
C997        C998   1.348       .  D
C998       H1006   1.084       .  S
C999       H1007   1.086       .  S
C999       C1000   1.344       .  D
C1000      H1008   1.087       .  S
C1009      C1017   1.496       .  S
C1009      C1010   1.406   1_554  A
C1009      C1014   1.409   1_554  A
C1010      H1019   1.084       .  S
C1010      C1011   1.401       .  A
C1011      H1020   1.081       .  S
C1011      C1012   1.408       .  A
C1012      C1015   1.494       .  S
C1012      C1013   1.405       .  A
C1013      H1021   1.083       .  S
C1013      C1014   1.402       .  A
C1014      H1022   1.080   1_556  S
C1015      H1023   1.087       .  S
C1015      C1016   1.349       .  D
C1016      H1024   1.085       .  S
C1017      H1025   1.087       .  S
C1017      C1018   1.351       .  D
C1018      H1026   1.084       .  S
C1027      C1035   1.490       .  S
C1027      C1028   1.401       .  A
C1027      C1032   1.410       .  A
C1028      H1037   1.084       .  S
C1028      C1029   1.396       .  A
C1029      H1038   1.081       .  S
C1029      C1030   1.410       .  A
C1030      C1033   1.491       .  S
C1030      C1031   1.403       .  A
C1031      H1039   1.084       .  S
C1031      C1032   1.402       .  A
C1032      H1040   1.081       .  S
C1033      H1041   1.087       .  S
C1033      C1034   1.344       .  D
C1034      H1042   1.085       .  S
C1035      H1043   1.087       .  S
C1035      C1036   1.344       .  D
C1036      H1044   1.085       .  S
C1045      C1053   1.487       .  S
C1045      C1046   1.406       .  A
C1045      C1050   1.406       .  A
C1046      H1055   1.083       .  S
C1046      C1047   1.394       .  A
C1047      H1056   1.081       .  S
C1047      C1048   1.403       .  A
C1048      C1051   1.486       .  S
C1048      C1049   1.407       .  A
C1049      H1057   1.083   1_554  S
C1049      C1050   1.402       .  A
C1050      H1058   1.080   1_554  S
C1051      H1059   1.087   1_554  S
C1051      C1052   1.351       .  D
C1052      H1060   1.084       .  S
C1053      H1061   1.087       .  S
C1053      C1054   1.353       .  D
C1054      H1062   1.084       .  S
C1063      C1071   1.495       .  S
C1063      C1064   1.404       .  A
C1063      C1068   1.410       .  A
C1064      H1073   1.083       .  S
C1064      C1065   1.404       .  A
C1065      H1074   1.082       .  S
C1065      C1066   1.411       .  A
C1066      C1069   1.491       .  S
C1066      C1067   1.401       .  A
C1067      H1075   1.083       .  S
C1067      C1068   1.398       .  A
C1068      H1076   1.082       .  S
C1069      H1077   1.087       .  S
C1069      C1070   1.344       .  D
C1070      H1078   1.086       .  S
C1071      H1079   1.086       .  S
C1071      C1072   1.345       .  D
C1072      H1080   1.086       .  S
C1081      C1089   1.495       .  S
C1081      C1082   1.403       .  A
C1081      C1086   1.410       .  A
C1082      H1091   1.083       .  S
C1082      C1083   1.400       .  A
C1083      H1092   1.079       .  S
C1083      C1084   1.410       .  A
C1084      C1087   1.495       .  S
C1084      C1085   1.404       .  A
C1085      H1093   1.084       .  S
C1085      C1086   1.399       .  A
C1086      H1094   1.079       .  S
C1087      H1095   1.087       .  S
C1087      C1088   1.348       .  D
C1088      H1096   1.083       .  S
C1089      H1097   1.087       .  S
C1089      C1090   1.346       .  D
C1090      H1098   1.083       .  S
C1099      C1107   1.489       .  S
C1099      C1100   1.404       .  A
C1099      C1104   1.408       .  A
C1100      H1109   1.084       .  S
C1100      C1101   1.398       .  A
C1101      H1110   1.082       .  S
C1101      C1102   1.407       .  A
C1102      C1105   1.488       .  S
C1102      C1103   1.403       .  A
C1103      H1111   1.083       .  S
C1103      C1104   1.400       .  A
C1104      H1112   1.081       .  S
C1105      H1113   1.087       .  S
C1105      C1106   1.346       .  D
C1106      H1114   1.085       .  S
C1107      H1115   1.087       .  S
C1107      C1108   1.347       .  D
C1108      H1116   1.084       .  S
C1117      C1125   1.489       .  S
C1117      C1118   1.406       .  A
C1117      C1122   1.408       .  A
C1118      H1127   1.084       .  S
C1118      C1119   1.397       .  A
C1119      H1128   1.081       .  S
C1119      C1120   1.405       .  A
C1120      C1123   1.486       .  S
C1120      C1121   1.405       .  A
C1121      H1129   1.084       .  S
C1121      C1122   1.399       .  A
C1122      H1130   1.080       .  S
C1123      H1131   1.087       .  S
C1123      C1124   1.349       .  D
C1124      H1132   1.085       .  S
C1125      H1133   1.087       .  S
C1125      C1126   1.350       .  D
C1126      H1134   1.083       .  S
C1135      C1143   1.482       .  S
C1135      C1136   1.400       .  A
C1135      C1140   1.409       .  A
C1136      H1145   1.083       .  S
C1136      C1137   1.396       .  A
C1137      H1146   1.082       .  S
C1137      C1138   1.410       .  A
C1138      C1141   1.484       .  S
C1138      C1139   1.400       .  A
C1139      H1147   1.083       .  S
C1139      C1140   1.397       .  A
C1140      H1148   1.082       .  S
C1141      H1149   1.087       .  S
C1141      C1142   1.342       .  D
C1142      H1150   1.086       .  S
C1143      H1151   1.087       .  S
C1143      C1144   1.341       .  D
C1144      H1152   1.086       .  S
C1153      C1161   1.492       .  S
C1153      C1154   1.402       .  A
C1153      C1158   1.410       .  A
C1154      H1163   1.083       .  S
C1154      C1155   1.400       .  A
C1155      H1164   1.082       .  S
C1155      C1156   1.410       .  A
C1156      C1159   1.493       .  S
C1156      C1157   1.403       .  A
C1157      H1165   1.083       .  S
C1157      C1158   1.401       .  A
C1158      H1166   1.082       .  S
C1159      H1167   1.086       .  S
C1159      C1160   1.345       .  D
C1160      H1168   1.085       .  S
C1161      H1169   1.087       .  S
C1161      C1162   1.344       .  D
C1162      H1170   1.086       .  S
C1171      C1179   1.498       .  S
C1171      C1172   1.404       .  A
C1171      C1176   1.410       .  A
C1172      H1181   1.083       .  S
C1172      C1173   1.402       .  A
C1173      H1182   1.081       .  S
C1173      C1174   1.411       .  A
C1174      C1177   1.499       .  S
C1174      C1175   1.404       .  A
C1175      H1183   1.083       .  S
C1175      C1176   1.403       .  A
C1176      H1184   1.081       .  S
C1177      H1185   1.087       .  S
C1177      C1178   1.346       .  D
C1178      H1186   1.085       .  S
C1179      H1187   1.087       .  S
C1179      C1180   1.348       .  D
C1180      H1188   1.084       .  S
C1189      C1197   1.501       .  S
C1189      C1190   1.406       .  A
C1189      C1194   1.411       .  A
C1190      H1199   1.084       .  S
C1190      C1191   1.403       .  A
C1191      H1200   1.079       .  S
C1191      C1192   1.410       .  A
C1192      C1195   1.498       .  S
C1192      C1193   1.404       .  A
C1193      H1201   1.084       .  S
C1193      C1194   1.401       .  A
C1194      H1202   1.078       .  S
C1195      H1203   1.087       .  S
C1195      C1196   1.349       .  D
C1196      H1204   1.083       .  S
C1197      H1205   1.087       .  S
C1197      C1198   1.350       .  D
C1198      H1206   1.082       .  S
C1207      C1215   1.494       .  S
C1207      C1208   1.403       .  A
C1207      C1212   1.410       .  A
C1208      H1217   1.083       .  S
C1208      C1209   1.401       .  A
C1209      H1218   1.081       .  S
C1209      C1210   1.410       .  A
C1210      C1213   1.494       .  S
C1210      C1211   1.404       .  A
C1211      H1219   1.083       .  S
C1211      C1212   1.402       .  A
C1212      H1220   1.081       .  S
C1213      H1221   1.087       .  S
C1213      C1214   1.348       .  D
C1214      H1222   1.085       .  S
C1215      H1223   1.087       .  S
C1215      C1216   1.347       .  D
C1216      H1224   1.085       .  S
