geometry optimzed in LAMMPS
_audit_creation_date              2020-12-01 
_audit_creation_method            'lammps2cif' 
_symmetry_space_group_name_H-M    'P1' 
_symmetry_Int_Tables_number       1 
_symmetry_cell_setting            triclinic 
loop_ 
_symmetry_equiv_pos_as_xyz 
  x,y,z 
_cell_length_a                    33.97459504 
_cell_length_b                    33.97075619612349 
_cell_length_c                    29.698894507534725 
_cell_angle_alpha                 89.99333749221354 
_cell_angle_beta                  89.99276456624224 
_cell_angle_gamma                 89.99194001085688 
loop_ 
_atom_site_label 
_atom_site_type_symbol 
_atom_site_fract_x 
_atom_site_fract_y 
_atom_site_fract_z 
_atom_site_charge 
O1          O  0.45375422  0.78809001  0.04862584    -0.73600
O2          O  0.53872736  0.78516764  0.45402196    -0.74500
O3          O  0.53869625  0.78549309  0.04863477    -0.63200
O4          O  0.45403201  0.78795354  0.45380693    -0.71600
O5          O  0.45644140  0.85330499  0.45337953    -0.71100
O6          O  0.53963826  0.85089806  0.04864244    -0.62400
O7          O  0.53957515  0.85055907  0.45338527    -0.74900
O8          O  0.45650707  0.85343351  0.04884853    -0.73700
Cu9        Cu  0.49621706  0.78433603  0.00132247     1.04600
Cu10       Cu  0.49809724  0.85427091  0.50109612     1.04300
C11         C  0.44146794  0.82132343  0.06309729     0.92600
C12         C  0.55273158  0.81758647  0.43922391     0.91800
C13         C  0.55286447  0.81801441  0.06291764     0.83900
C14         C  0.44182085  0.82108013  0.43891704     0.90200
C15         C  0.64353944  0.79035155  0.37734353     0.79600
N16         N  0.61234727  0.78853955  0.40611891    -0.78700
C17         C  0.58470327  0.81749920  0.40610069     0.82100
N18         N  0.58781327  0.84781849  0.37663794    -0.78600
C19         C  0.61848711  0.84964740  0.34755201     0.82200
N20         N  0.64646326  0.82117944  0.34829030    -0.80400
C21         C  0.35330562  0.79475370  0.37266488     0.79600
N22         N  0.35074332  0.82613969  0.34440730    -0.78700
C23         C  0.37800572  0.85526802  0.34613383     0.82100
N24         N  0.40771811  0.85333987  0.37657509    -0.78600
C25         C  0.41035180  0.82236709  0.40520055     0.82200
N26         N  0.38334348  0.79301897  0.40291661    -0.80400
C27         C  0.64517449  0.79207122  0.12218501     0.79600
N28         N  0.61384577  0.79022554  0.09368515    -0.78700
C29         C  0.58521353  0.81814011  0.09541949     0.82100
N30         N  0.58771433  0.84771128  0.12591893    -0.78600
C31         C  0.61864809  0.84969347  0.15460707     0.82200
N32         N  0.64740433  0.82204008  0.15250794    -0.80400
C33         C  0.34753642  0.79995390  0.12157592     0.79600
N34         N  0.34618100  0.83031626  0.15149910    -0.78700
C35         C  0.37625433  0.85663459  0.15378674     0.82100
N36         N  0.40741167  0.85305046  0.12557563    -0.78600
C37         C  0.40900962  0.82312498  0.09550333     0.82200
N38         N  0.37926705  0.79647462  0.09382294    -0.80400
O39         O  0.65430659  0.97762087  0.20370978    -0.73600
O40         O  0.65296151  0.89317574  0.29877657    -0.74500
O41         O  0.65295245  0.89308468  0.20367932    -0.63200
O42         O  0.65448055  0.97769967  0.29845546    -0.71600
O43         O  0.58907034  0.97800416  0.29868792    -0.71100
O44         O  0.58757798  0.89488759  0.20353133    -0.62400
O45         O  0.58758861  0.89521383  0.29910222    -0.74900
O46         O  0.58890023  0.97776045  0.20332488    -0.73700
Cu47       Cu  0.65604519  0.93531391  0.25115902     1.04600
Cu48       Cu  0.58605848  0.93646879  0.25117447     1.04300
C49         C  0.62167058  0.99113193  0.18892041     0.92600
C50         C  0.61988647  0.88094667  0.31376175     0.91800
C51         C  0.61990668  0.88071873  0.18878425     0.83900
C52         C  0.62185747  0.99135459  0.31307482     0.90200
O53         O  0.41297882  0.98276823  0.20349434    -0.73600
O54         O  0.41038400  0.89989634  0.29825681    -0.74500
O55         O  0.40957656  0.90004626  0.20281355    -0.63200
O56         O  0.41301746  0.98237545  0.29883975    -0.71600
O57         O  0.34763586  0.98480953  0.29896074    -0.71100
O58         O  0.34419278  0.90160656  0.20303094    -0.62400
O59         O  0.34496659  0.90052715  0.29807111    -0.74900
O60         O  0.34764818  0.98601724  0.20414630    -0.73700
Cu61       Cu  0.41369759  0.94117162  0.25083201     1.04600
Cu62       Cu  0.34371554  0.94333008  0.25107299     1.04300
C63         C  0.38093150  0.99781695  0.18924620     0.92600
C64         C  0.37757719  0.88688230  0.31283212     0.91800
C65         C  0.37652972  0.88762755  0.18802757     0.83900
C66         C  0.38084734  0.99679157  0.31369877     0.90200
O67         O  0.46105622  0.09344394  0.45375068    -0.73600
O68         O  0.54610797  0.09098049  0.04804728    -0.74500
O69         O  0.54555728  0.09141906  0.45308899    -0.63200
O70         O  0.46162158  0.09326403  0.04841578    -0.71600
O71         O  0.46088019  0.02784793  0.04869557    -0.71100
O72         O  0.54332495  0.02604515  0.45275983    -0.62400
O73         O  0.54367843  0.02561446  0.04828545    -0.74900
O74         O  0.46053229  0.02802758  0.45343666    -0.73700
Cu75       Cu  0.50369756  0.09462548  0.00080544     1.04600
Cu76       Cu  0.50207795  0.02463456  0.00075833     1.04300
C77         C  0.44732157  0.06087168  0.43906310     0.92600
C78         C  0.55822864  0.05779954  0.06288260     0.91800
C79         C  0.55771981  0.05831892  0.43813603     0.83900
C80         C  0.44784973  0.06074051  0.06317513     0.90200
C81         C  0.35671542  0.08721701  0.37682946     0.79600
N82         N  0.35411989  0.05638900  0.34783216    -0.78700
C83         C  0.38230065  0.02815758  0.34723430     0.82100
N84         N  0.41289049  0.03021547  0.37637945    -0.78600
C85         C  0.41561742  0.06059888  0.40579725     0.82200
N86         N  0.38775118  0.08927194  0.40572158    -0.80400
C87         C  0.64822233  0.08239695  0.37449219     0.79600
N88         N  0.65019951  0.05116243  0.34586591    -0.78700
C89         C  0.62155238  0.02326785  0.34610302     0.82100
N90         N  0.59121382  0.02617212  0.37555412    -0.78600
C91         C  0.58913601  0.05693824  0.40447731     0.82200
N92         N  0.61740523  0.08513848  0.40360370    -0.80400
C93         C  0.64815783  0.08204699  0.12739654     0.79600
N94         N  0.61774197  0.08452820  0.09774436    -0.78700
C95         C  0.58957975  0.05625449  0.09660990     0.82100
N96         N  0.59138948  0.02560776  0.12578309    -0.78600
C97         C  0.62141318  0.02293859  0.15571375     0.82200
N98         N  0.64989719  0.05097282  0.15624372    -0.80400
C99         C  0.35692152  0.08749440  0.12434549     0.79600
N100        N  0.35452565  0.05740986  0.15440461    -0.78700
C101        C  0.38279169  0.02928228  0.15574639     0.82100
N102        N  0.41347344  0.03096249  0.12662122    -0.78600
C103        C  0.41609386  0.06076682  0.09639168     0.82200
N104        N  0.38787984  0.08908404  0.09535930    -0.80400
O105        O  0.03949407  0.59397798  0.29799902    -0.73600
O106        O  0.95311663  0.59103470  0.20501981    -0.74500
O107        O  0.95509742  0.59160989  0.29991740    -0.63200
O108        O  0.03769021  0.59391264  0.20300051    -0.71600
O109        O  0.03878868  0.52851741  0.20291295    -0.71100
O110        O  0.95771124  0.52623938  0.30052023    -0.62400
O111        O  0.95597437  0.52568588  0.20512828    -0.74900
O112        O  0.04024001  0.52855948  0.29832554    -0.73700
Cu113      Cu  0.99627044  0.59502681  0.25147664     1.04600
Cu114      Cu  0.99825479  0.52504633  0.25172998     1.04300
C115        C  0.05336862  0.56141963  0.31263389     0.92600
C116        C  0.94098768  0.55769862  0.19063332     0.91800
C117        C  0.94328042  0.55848979  0.31514373     0.83900
C118        C  0.05141361  0.56144448  0.18800613     0.90200
O119        O  0.96140585  0.34846677  0.20220567    -0.73600
O120        O  0.04366796  0.35165960  0.29805626    -0.74500
O121        O  0.04393049  0.35083628  0.20253421    -0.63200
O122        O  0.96086713  0.34959699  0.29761451    -0.71600
O123        O  0.96151669  0.28418608  0.29810422    -0.71100
O124        O  0.04624506  0.28546297  0.20342110    -0.62400
O125        O  0.04592640  0.28627329  0.29841387    -0.74900
O126        O  0.96207451  0.28304545  0.20328181    -0.73700
Cu127      Cu  0.00242148  0.35237228  0.25009947     1.04600
Cu128      Cu  0.00403299  0.28237070  0.25087968     1.04300
C129        C  0.94854436  0.31544524  0.18793503     0.92600
C130        C  0.05806643  0.31950168  0.31297348     0.91800
C131        C  0.05822125  0.31850202  0.18803880     0.83900
C132        C  0.94775024  0.31687006  0.31245455     0.90200
O133        O  0.08593381  0.48230961  0.04780584    -0.73600
O134        O  0.08897506  0.39957195  0.45231906    -0.74500
O135        O  0.08809022  0.39905934  0.04745526    -0.63200
O136        O  0.08705166  0.48250318  0.45233683    -0.71600
O137        O  0.15240196  0.48461873  0.45326323    -0.71100
O138        O  0.15348191  0.39963095  0.04786339    -0.62400
O139        O  0.15437550  0.39995033  0.45330870    -0.74900
O140        O  0.15127894  0.48468329  0.04818440    -0.73700
Cu141      Cu  0.08530809  0.44082649  0.50000514     1.04600
Cu142      Cu  0.15523972  0.44232859  0.00072099     1.04300
C143        C  0.11800939  0.49705683  0.06249373     0.92600
C144        C  0.12189764  0.38629564  0.43826427     0.91800
C145        C  0.12082394  0.38552683  0.06183879     0.83900
C146        C  0.11943150  0.49698329  0.43811934     0.90200
C147        C  0.14487214  0.58672928  0.37340655     0.79600
N148        N  0.14708260  0.55623711  0.40307444    -0.78700
C149        C  0.11831235  0.52854870  0.40450133     0.82100
N150        N  0.08753026  0.53096556  0.37563335    -0.78600
C151        C  0.08512695  0.56106832  0.34577748     0.82200
N152        N  0.11361631  0.58903986  0.34490403    -0.80400
C153        C  0.14829156  0.29534252  0.37665586     0.79600
N154        N  0.15033022  0.32651828  0.40536695    -0.78700
C155        C  0.12179247  0.35452875  0.40505098     0.82100
N156        N  0.09154181  0.35176483  0.37546800    -0.78600
C157        C  0.08947040  0.32103537  0.34650990     0.82200
N158        N  0.11758694  0.29273277  0.34746358    -0.80400
C159        C  0.14589737  0.29257790  0.12055765     0.79600
N160        N  0.11621185  0.29067991  0.15117305    -0.78700
C161        C  0.08894583  0.31970668  0.15359266     0.82100
N162        N  0.09103226  0.35069142  0.12493364    -0.78600
C163        C  0.12041286  0.35292788  0.09413261     0.82200
N164        N  0.14795922  0.32391729  0.09204671    -0.80400
C165        C  0.14063434  0.58932007  0.12377654     0.79600
N166        N  0.14366932  0.55814555  0.09516559    -0.78700
C167        C  0.11619545  0.52912498  0.09544343     0.82100
N168        N  0.08582306  0.53088442  0.12498440    -0.78600
C169        C  0.08266282  0.56153755  0.15401642     0.82200
N170        N  0.10986117  0.59086246  0.15310752    -0.80400
O171        O  0.91447187  0.39452948  0.04843510    -0.73600
O172        O  0.91193004  0.47864937  0.45466495    -0.74500
O173        O  0.91192417  0.47749446  0.05001272    -0.63200
O174        O  0.91420040  0.39564918  0.45304707    -0.71600
O175        O  0.84884878  0.39314318  0.45354949    -0.71100
O176        O  0.84652539  0.47651017  0.04941369    -0.62400
O177        O  0.84653388  0.47772358  0.45473941    -0.74900
O178        O  0.84911269  0.39194622  0.04823387    -0.73700
Cu179      Cu  0.91539004  0.43663670  0.00153778     1.04600
Cu180      Cu  0.84542029  0.43475784  0.00149551     1.04300
C181        C  0.88233226  0.37960433  0.06266451     0.92600
C182        C  0.87905083  0.49177111  0.44027033     0.91800
C183        C  0.87891599  0.49037360  0.06438267     0.83900
C184        C  0.88195367  0.38108345  0.43853037     0.90200
C185        C  0.85788843  0.29001126  0.37589895     0.79600
N186        N  0.88858237  0.28832314  0.34650392    -0.78700
C187        C  0.91615911  0.31726572  0.34592596     0.82100
N188        N  0.91348318  0.34768357  0.37533321    -0.78600
C189        C  0.88324137  0.34950006  0.40502002     0.82200
N190        N  0.85535434  0.32088375  0.40496107    -0.80400
C191        C  0.85143649  0.58128545  0.37634843     0.79600
N192        N  0.88276295  0.58443508  0.34808282    -0.78700
C193        C  0.91182282  0.55709463  0.34865080     0.82100
N194        N  0.91006218  0.52681058  0.37824689    -0.78600
C195        C  0.87921662  0.52352221  0.40696801     0.82200
N196        N  0.84968989  0.55051167  0.40568158    -0.80400
C197        C  0.85078004  0.58080773  0.12585282     0.79600
N198        N  0.84972319  0.54989102  0.09675977    -0.78700
C199        C  0.87849612  0.52211676  0.09764623     0.82100
N200        N  0.90821261  0.52506476  0.12791137    -0.78600
C201        C  0.90944291  0.55565903  0.15717199     0.82200
N202        N  0.88089312  0.58355812  0.15591031    -0.80400
C203        C  0.85884027  0.28816240  0.12482863     0.79600
N204        N  0.88973302  0.28638685  0.15390848    -0.78700
C205        C  0.91735559  0.31526022  0.15413698     0.82100
N206        N  0.91449517  0.34566965  0.12480182    -0.78600
C207        C  0.88404113  0.34757333  0.09547736     0.82200
N208        N  0.85611525  0.31904297  0.09579770    -0.80400
C209        C  0.24819029  0.15830438  0.19851488    -0.18400
C210        C  0.21840690  0.18663401  0.19775486    -0.20600
C211        C  0.21174785  0.20914420  0.15888603     0.20000
C212        C  0.23517871  0.20302849  0.12030244    -0.03500
C213        C  0.26529046  0.17444116  0.12108521    -0.06600
C214        C  0.27177385  0.15204622  0.16041818     0.20300
C215        C  0.28900542  0.16844063  0.08267547     0.18500
C216        C  0.28194635  0.19062055  0.04362467    -0.18100
C217        C  0.25204133  0.21897974  0.04284883    -0.20300
C218        C  0.22874869  0.22567557  0.08112346     0.20000
C219        C  0.19940939  0.25483060  0.08110604    -0.33300
C220        C  0.17621594  0.26129406  0.11967486     0.00700
C221        C  0.18233889  0.23796562  0.15817922    -0.24600
C222        C  0.30176557  0.12382149  0.16106159    -0.29200
C223        C  0.32574325  0.11781945  0.12309849     0.06300
C224        C  0.31929796  0.14035597  0.08401944    -0.27900
H225        H  0.25288476  0.14135314  0.22896223     0.11100
H226        H  0.20066609  0.19108594  0.22766788     0.12200
H227        H  0.29966040  0.18609822  0.01380385     0.11300
H228        H  0.24723811  0.23586580  0.01246017     0.10500
H229        H  0.19461339  0.27240468  0.05115284     0.15900
H230        H  0.16471906  0.24279915  0.18816251     0.11800
H231        H  0.30666696  0.10672548  0.19142311     0.14700
H232        H  0.33743534  0.13566766  0.05450046     0.14400
C233        C  0.77260729  0.13668851  0.18791505    -0.18400
C234        C  0.80222671  0.16529778  0.18729948    -0.20600
C235        C  0.80033948  0.19689824  0.15690338     0.20000
C236        C  0.76819556  0.19978782  0.12699844    -0.03500
C237        C  0.73832224  0.17095233  0.12763911    -0.06600
C238        C  0.74060236  0.13919366  0.15815903     0.20300
C239        C  0.70630203  0.17383036  0.09757890     0.18500
C240        C  0.70425555  0.20552866  0.06737663    -0.18100
C241        C  0.73382849  0.23409194  0.06675665    -0.20300
C242        C  0.76591990  0.23141860  0.09632299     0.20000
C243        C  0.79572236  0.25987097  0.09569290    -0.33300
C244        C  0.82791128  0.25735108  0.12538630     0.00700
C245        C  0.82998645  0.22564355  0.15588561    -0.24600
C246        C  0.71099096  0.11040067  0.15817642    -0.29200
C247        C  0.67909429  0.11286206  0.12799928     0.06300
C248        C  0.67697621  0.14487491  0.09798671    -0.27900
H249        H  0.77481652  0.11247573  0.21155318     0.11100
H250        H  0.82668405  0.16264679  0.21051217     0.12200
H251        H  0.67982596  0.20816692  0.04411938     0.11300
H252        H  0.73163454  0.25826421  0.04307171     0.10500
H253        H  0.79367297  0.28409031  0.07202212     0.15900
H254        H  0.85458123  0.22331963  0.17899518     0.11800
H255        H  0.71297862  0.08596218  0.18158486     0.14700
H256        H  0.65258110  0.14726553  0.07462318     0.14400
C257        C  0.80566335  0.16263377  0.32046377    -0.18400
C258        C  0.77625461  0.13379822  0.31999941    -0.20600
C259        C  0.74269972  0.13774075  0.34721819     0.20000
C260        C  0.73891377  0.17093739  0.37545520    -0.03500
C261        C  0.76860018  0.20001280  0.37595796    -0.06600
C262        C  0.80204249  0.19592520  0.34816862     0.20300
C263        C  0.76472185  0.23320755  0.40415905     0.18500
C264        C  0.73139680  0.23696968  0.43174725    -0.18100
C265        C  0.70200209  0.20818814  0.43124258    -0.20300
C266        C  0.70545087  0.17514536  0.40316490     0.20000
C267        C  0.67601597  0.14626125  0.40243447    -0.33300
C268        C  0.67943721  0.11300341  0.37439743     0.00700
C269        C  0.71294128  0.10907025  0.34679388    -0.24600
C270        C  0.83115319  0.22525167  0.34843470    -0.29200
C271        C  0.82737758  0.25868042  0.37619540     0.06300
C272        C  0.79407897  0.26219775  0.40415882    -0.27900
H273        H  0.83124767  0.15893384  0.29905070     0.11100
H274        H  0.77974719  0.10836710  0.29828763     0.12200
H275        H  0.72799494  0.26225721  0.45361774     0.11300
H276        H  0.67652017  0.21181140  0.45278537     0.10500
H277        H  0.65043064  0.14977395  0.42384112     0.15900
H278        H  0.71605029  0.08356749  0.32504884     0.11800
H279        H  0.85673149  0.22200629  0.32685225     0.14700
H280        H  0.79073679  0.28767697  0.42576780     0.14400
C281        C  0.27882364  0.24675159  0.42514903    -0.18400
C282        C  0.30797635  0.21772256  0.42507453    -0.20600
C283        C  0.30252025  0.18264430  0.40095891     0.20000
C284        C  0.26759887  0.17699850  0.37606952    -0.03500
C285        C  0.23818140  0.20628397  0.37615316    -0.06600
C286        C  0.24371648  0.24118486  0.40111765     0.20300
C287        C  0.20326101  0.20061610  0.35130296     0.18500
C288        C  0.19809897  0.16585487  0.32647216    -0.18100
C289        C  0.22725156  0.13681919  0.32640428    -0.20300
C290        C  0.26203372  0.14209126  0.35115842     0.20000
C291        C  0.29128269  0.11303149  0.35149729    -0.33300
C292        C  0.32604174  0.11820510  0.37664931     0.00700
C293        C  0.33137784  0.15316742  0.40128166    -0.24600
C294        C  0.21414089  0.26995372  0.40151500    -0.29200
C295        C  0.17922025  0.26458081  0.37680135     0.06300
C296        C  0.17411589  0.22978285  0.35169620    -0.27900
H297        H  0.28363376  0.27349562  0.44428836     0.11100
H298        H  0.33474168  0.22261166  0.44416472     0.12200
H299        H  0.17147652  0.16110348  0.30711295     0.11300
H300        H  0.22257520  0.11020914  0.30701069     0.10500
H301        H  0.28676106  0.08623265  0.33234699     0.15900
H302        H  0.35814832  0.15763545  0.42057113     0.11800
H303        H  0.21854523  0.29672113  0.42080760     0.14700
H304        H  0.14733430  0.22520899  0.33251983     0.14400
C305        C  0.26436762  0.64546079  0.06375996    -0.18400
C306        C  0.29286360  0.67513215  0.06291836    -0.20600
C307        C  0.28922947  0.70827083  0.09079336     0.20000
C308        C  0.25639970  0.71169520  0.11960348    -0.03500
C309        C  0.22760073  0.68170414  0.12046139    -0.06600
C310        C  0.23170150  0.64841876  0.09245879     0.20300
C311        C  0.19494249  0.68486567  0.14958468     0.18500
C312        C  0.19110349  0.71825517  0.17708947    -0.18100
C313        C  0.21965426  0.74795813  0.17626686    -0.20300
C314        C  0.25259003  0.74481226  0.14793928     0.20000
C315        C  0.28201045  0.77388173  0.14789607    -0.33300
C316        C  0.31532071  0.77032331  0.11987928     0.00700
C317        C  0.31826162  0.73760475  0.09093380    -0.24600
C318        C  0.20325375  0.61853922  0.09377870    -0.29200
C319        C  0.17059621  0.62124096  0.12284026     0.06300
C320        C  0.16675421  0.65461989  0.15069929    -0.27900
H321        H  0.26808400  0.61993976  0.04228662     0.11100
H322        H  0.31809009  0.67190972  0.04090048     0.12200
H323        H  0.16599933  0.72136936  0.19934367     0.11300
H324        H  0.21606634  0.77334978  0.19799250     0.10500
H325        H  0.27914846  0.79902043  0.17019446     0.15900
H326        H  0.34357323  0.73446430  0.06896954     0.11800
H327        H  0.20672018  0.59306258  0.07212371     0.14700
H328        H  0.14176533  0.65719786  0.17325930     0.14400
C329        C  0.74102910  0.64985787  0.04877616    -0.18400
C330        C  0.71261298  0.67974453  0.04799267    -0.20600
C331        C  0.70851826  0.70554220  0.08467387     0.20000
C332        C  0.73343739  0.70123384  0.12239115    -0.03500
C333        C  0.76202562  0.67108386  0.12321191    -0.06600
C334        C  0.76584807  0.64524050  0.08624463     0.20300
C335        C  0.78679370  0.66686971  0.16105093     0.18500
C336        C  0.78265403  0.69248342  0.19779589    -0.18100
C337        C  0.75440519  0.72233382  0.19696382    -0.20300
C338        C  0.72978678  0.72700845  0.15941951     0.20000
C339        C  0.70140035  0.75685697  0.15852412    -0.33300
C340        C  0.67602726  0.76117161  0.12142824     0.00700
C341        C  0.67986036  0.73540877  0.08448316    -0.24600
C342        C  0.79454630  0.61544337  0.08738455    -0.29200
C343        C  0.81969400  0.61143301  0.12485051     0.06300
C344        C  0.81541739  0.63724405  0.16154432    -0.27900
H345        H  0.74360671  0.63034512  0.02002905     0.11100
H346        H  0.69381661  0.68265719  0.01873412     0.12200
H347        H  0.80134203  0.68948993  0.22715609     0.11300
H348        H  0.75179559  0.74178846  0.22576661     0.10500
H349        H  0.69863080  0.77633770  0.18729905     0.15900
H350        H  0.66062724  0.73860137  0.05560050     0.11800
H351        H  0.79764844  0.59577467  0.05883130     0.14700
H352        H  0.83433665  0.63425431  0.19073585     0.14400
C353        C  0.29692234  0.67213043  0.43404125    -0.18400
C354        C  0.26765094  0.64328130  0.43439468    -0.20600
C355        C  0.23706049  0.64428418  0.40272712     0.20000
C356        C  0.23627082  0.67425433  0.36985619    -0.03500
C357        C  0.26587145  0.70335900  0.36945677    -0.06600
C358        C  0.29607521  0.70244727  0.40202135     0.20300
C359        C  0.26501687  0.73353776  0.33683478     0.18500
C360        C  0.23489418  0.73399507  0.30448744    -0.18100
C361        C  0.20547319  0.70516852  0.30495502    -0.20300
C362        C  0.20575962  0.67534100  0.33767279     0.20000
C363        C  0.17599999  0.64672473  0.33894771    -0.33300
C364        C  0.17639690  0.61689092  0.37192811     0.00700
C365        C  0.20722441  0.61588123  0.40352815    -0.24600
C366        C  0.32470755  0.73205034  0.40237869    -0.29200
C367        C  0.32368174  0.76277958  0.37065365     0.06300
C368        C  0.29395588  0.76299722  0.33756186    -0.27900
H369        H  0.32022693  0.67080501  0.45888788     0.11100
H370        H  0.26887978  0.62017598  0.45950579     0.12200
H371        H  0.23385685  0.75691007  0.27916392     0.11300
H372        H  0.18227886  0.70637134  0.27996012     0.10500
H373        H  0.15255438  0.64775859  0.31420372     0.15900
H374        H  0.20798163  0.59307569  0.42909536     0.11800
H375        H  0.34751631  0.73135935  0.42792824     0.14700
H376        H  0.29300805  0.78629361  0.31262962     0.14400
C377        C  0.71789708  0.62713726  0.41811394    -0.18400
C378        C  0.68902547  0.65651396  0.41868427    -0.20600
C379        C  0.69583328  0.69291573  0.39771057     0.20000
C380        C  0.73193709  0.69959550  0.37547658    -0.03500
C381        C  0.76104467  0.66994440  0.37485972    -0.06600
C382        C  0.75408715  0.63364294  0.39656847     0.20300
C383        C  0.79719665  0.67676680  0.35283229     0.18500
C384        C  0.80390478  0.71299868  0.33147479    -0.18100
C385        C  0.77509472  0.74237009  0.33211314    -0.20300
C386        C  0.73907195  0.73597055  0.35405503     0.20000
C387        C  0.71011249  0.76534025  0.35495474    -0.33300
C388        C  0.67403131  0.75906446  0.37717387     0.00700
C389        C  0.66720497  0.72272323  0.39859281    -0.24600
C390        C  0.78355562  0.60467024  0.39673032    -0.29200
C391        C  0.81986960  0.61141729  0.37525075     0.06300
C392        C  0.82619405  0.64744484  0.35294711    -0.27900
H393        H  0.71201594  0.59939087  0.43484138     0.11100
H394        H  0.66143229  0.65083740  0.43578196     0.12200
H395        H  0.83152286  0.71868221  0.31439393     0.11300
H396        H  0.78101097  0.77014083  0.31546418     0.10500
H397        H  0.71585635  0.79325748  0.33848384     0.15900
H398        H  0.63946182  0.71744128  0.41560475     0.11800
H399        H  0.77819632  0.57689315  0.41366583     0.14700
H400        H  0.85404852  0.65306216  0.33626620     0.14400
O401        O  0.45373262  0.78808661  0.54863418    -0.73600
O402        O  0.53876773  0.78520425  0.95401736    -0.74500
O403        O  0.53866979  0.78546312  0.54864236    -0.63200
O404        O  0.45405294  0.78796448  0.95380173    -0.71600
O405        O  0.45644600  0.85331582  0.95337974    -0.71100
O406        O  0.53962231  0.85086836  0.54863737    -0.62400
O407        O  0.53959977  0.85059499  0.95338901    -0.74900
O408        O  0.45650050  0.85343012  0.54885114    -0.73700
Cu409      Cu  0.49618880  0.78431487  0.50133068     1.04600
Cu410      Cu  0.49810941  0.85429124  0.00109654     1.04300
C411        C  0.44145574  0.82132433  0.56310273     0.92600
C412        C  0.55277391  0.81762719  0.93923168     0.91800
C413        C  0.55284065  0.81798476  0.56292069     0.83900
C414        C  0.44182219  0.82108860  0.93892549     0.90200
C415        C  0.64360179  0.79041748  0.87734298     0.79600
N416        N  0.61241742  0.78860168  0.90613461    -0.78700
C417        C  0.58475960  0.81755171  0.90611776     0.82100
N418        N  0.58785058  0.84786292  0.87664167    -0.78600
C419        C  0.61851574  0.84969220  0.84754388     0.82200
N420        N  0.64650230  0.82123716  0.84828062    -0.80400
C421        C  0.35328716  0.79473404  0.87270406     0.79600
N422        N  0.35070417  0.82612250  0.84445631    -0.78700
C423        C  0.37794943  0.85526336  0.84618385     0.82100
N424        N  0.40767054  0.85334533  0.87661507    -0.78600
C425        C  0.41032753  0.82237019  0.90523419     0.82200
N426        N  0.38333130  0.79300798  0.90295161    -0.80400
C427        C  0.64519722  0.79212488  0.62213732     0.79600
N428        N  0.61385186  0.79023981  0.59366322    -0.78700
C429        C  0.58518506  0.81811827  0.59542542     0.82100
N430        N  0.58766615  0.84768857  0.62592800    -0.78600
C431        C  0.61861460  0.84970358  0.65459041     0.82200
N432        N  0.64740504  0.82209231  0.65245914    -0.80400
C433        C  0.34745795  0.80002258  0.62144849     0.79600
N434        N  0.34610828  0.83035908  0.65140442    -0.78700
C435        C  0.37621413  0.85663384  0.65376749     0.82100
N436        N  0.40739680  0.85303644  0.62559321    -0.78600
C437        C  0.40898758  0.82313326  0.59549076     0.82200
N438        N  0.37921391  0.79652396  0.59374011    -0.80400
O439        O  0.65433069  0.97760921  0.70367099    -0.73600
O440        O  0.65297201  0.89318238  0.79872890    -0.74500
O441        O  0.65293102  0.89308745  0.70364017    -0.63200
O442        O  0.65452185  0.97767723  0.79841318    -0.71600
O443        O  0.58911017  0.97800095  0.79866192    -0.71100
O444        O  0.58755582  0.89490580  0.70350940    -0.62400
O445        O  0.58759841  0.89523315  0.79908030    -0.74900
O446        O  0.58892376  0.97777560  0.70329946    -0.73700
Cu447      Cu  0.65605835  0.93530678  0.75111408     1.04600
Cu448      Cu  0.58606984  0.93648292  0.75114946     1.04300
C449        C  0.62169864  0.99113223  0.68888827     0.92600
C450        C  0.61989958  0.88097059  0.81373599     0.91800
C451        C  0.61987854  0.88073076  0.68875620     0.83900
C452        C  0.62190446  0.99132614  0.81305324     0.90200
O453        O  0.41292822  0.98272640  0.70352643    -0.73600
O454        O  0.41032094  0.89986319  0.79827940    -0.74500
O455        O  0.40952786  0.90001327  0.70283536    -0.63200
O456        O  0.41295398  0.98232630  0.79886004    -0.71600
O457        O  0.34757213  0.98477118  0.79898103    -0.71100
O458        O  0.34414393  0.90157336  0.70304347    -0.62400
O459        O  0.34490301  0.90049508  0.79809550    -0.74900
O460        O  0.34759722  0.98597973  0.70416837    -0.73700
Cu461      Cu  0.41363956  0.94113087  0.75085666     1.04600
Cu462      Cu  0.34365675  0.94329299  0.75109202     1.04300
C463        C  0.38088398  0.99777892  0.68927728     0.92600
C464        C  0.37751472  0.88685928  0.81286479     0.91800
C465        C  0.37648354  0.88760289  0.68803545     0.83900
C466        C  0.38078653  0.99674685  0.81371766     0.90200
O467        O  0.46110141  0.09342003  0.95366661    -0.73600
O468        O  0.54611318  0.09102290  0.54808470    -0.74500
O469        O  0.54560313  0.09134806  0.95306022    -0.63200
O470        O  0.46161042  0.09328135  0.54850596    -0.71600
O471        O  0.46088868  0.02786615  0.54877489    -0.71100
O472        O  0.54335717  0.02597356  0.95275374    -0.62400
O473        O  0.54369660  0.02565654  0.54829279    -0.74900
O474        O  0.46055927  0.02800397  0.95336105    -0.73700
Cu475      Cu  0.50367178  0.09466476  0.50086860     1.04600
Cu476      Cu  0.50207092  0.02467444  0.50080235     1.04300
C477        C  0.44735481  0.06085154  0.93898549     0.92600
C478        C  0.55825133  0.05783784  0.56289189     0.91800
C479        C  0.55776820  0.05824005  0.93813374     0.83900
C480        C  0.44784590  0.06075300  0.56326178     0.90200
C481        C  0.35670740  0.08719707  0.87681795     0.79600
N482        N  0.35408067  0.05635119  0.84785024    -0.78700
C483        C  0.38225542  0.02811563  0.84724353     0.82100
N484        N  0.41287159  0.03018593  0.87634971    -0.78600
C485        C  0.41563276  0.06058556  0.90573895     0.82200
N486        N  0.38777097  0.08926574  0.90567279    -0.80400
C487        C  0.64827960  0.08231684  0.87452646     0.79600
N488        N  0.65025623  0.05109718  0.84588382    -0.78700
C489        C  0.62161227  0.02320346  0.84611270     0.82100
N490        N  0.59127650  0.02609180  0.87556820    -0.78600
C491        C  0.58920070  0.05684676  0.90450442     0.82200
N492        N  0.61746706  0.08504697  0.90364210    -0.80400
C493        C  0.64825079  0.08200365  0.62732450     0.79600
N494        N  0.61781876  0.08451396  0.59769540    -0.78700
C495        C  0.58962236  0.05627389  0.59659382     0.82100
N496        N  0.59141706  0.02563129  0.62577258    -0.78600
C497        C  0.62145506  0.02293454  0.65567963     0.82200
N498        N  0.64997194  0.05093544  0.65618009    -0.80400
C499        C  0.35690102  0.08748946  0.62443678     0.79600
N500        N  0.35449412  0.05738812  0.65447002    -0.78700
C501        C  0.38275373  0.02925458  0.65579459     0.82100
N502        N  0.41344393  0.03094656  0.62668051    -0.78600
C503        C  0.41607856  0.06076823  0.59647455     0.82200
N504        N  0.38786633  0.08909080  0.59545713    -0.80400
O505        O  0.03949301  0.59400804  0.79796979    -0.73600
O506        O  0.95312618  0.59104137  0.70500421    -0.74500
O507        O  0.95511595  0.59162640  0.79989504    -0.63200
O508        O  0.03769777  0.59393044  0.70297627    -0.71600
O509        O  0.03880883  0.52853540  0.70290218    -0.71100
O510        O  0.95772846  0.52625513  0.80050288    -0.62400
O511        O  0.95598994  0.52569218  0.70511423    -0.74900
O512        O  0.04024037  0.52858824  0.79831097    -0.73700
Cu513      Cu  0.99627891  0.59504432  0.75145142     1.04600
Cu514      Cu  0.99826883  0.52506269  0.75171418     1.04300
C515        C  0.05335894  0.56145195  0.81261782     0.92600
C516        C  0.94099586  0.55770360  0.69062634     0.91800
C517        C  0.94330637  0.55850733  0.81513079     0.83900
C518        C  0.05142995  0.56146300  0.68799119     0.90200
O519        O  0.96139471  0.34846000  0.70224406    -0.73600
O520        O  0.04362060  0.35160611  0.79811505    -0.74500
O521        O  0.04390659  0.35083657  0.70260247    -0.63200
O522        O  0.96083376  0.34952952  0.79764996    -0.71600
O523        O  0.96149245  0.28411774  0.79811604    -0.71100
O524        O  0.04622408  0.28546198  0.70345640    -0.62400
O525        O  0.04589503  0.28621959  0.79844278    -0.74900
O526        O  0.96206695  0.28303755  0.70328833    -0.73700
Cu527      Cu  0.00239076  0.35233962  0.75015205     1.04600
Cu528      Cu  0.00401083  0.28233641  0.75089806     1.04300
C529        C  0.94854527  0.31544368  0.68794826     0.92600
C530        C  0.05802551  0.31944658  0.81301703     0.91800
C531        C  0.05819998  0.31850833  0.68809585     0.83900
C532        C  0.94772773  0.31679650  0.81248246     0.90200
O533        O  0.08597088  0.48230920  0.54782899    -0.73600
O534        O  0.08896896  0.39958457  0.95227161    -0.74500
O535        O  0.08810034  0.39906024  0.54750870    -0.63200
O536        O  0.08701137  0.48252195  0.95231689    -0.71600
O537        O  0.15236173  0.48464978  0.95324143    -0.71100
O538        O  0.15349162  0.39961854  0.54792147    -0.62400
O539        O  0.15436902  0.39997772  0.95325651    -0.74900
O540        O  0.15131655  0.48467455  0.54821351    -0.73700
Cu541      Cu  0.08528408  0.44083345  0.99996797     1.04600
Cu542      Cu  0.15526384  0.44230705  0.50076227     1.04300
C543        C  0.11804699  0.49705466  0.56251553     0.92600
C544        C  0.12189414  0.38631054  0.93821903     0.91800
C545        C  0.12083025  0.38552411  0.56190072     0.83900
C546        C  0.11938817  0.49701445  0.93810800     0.90200
C547        C  0.14486925  0.58672786  0.87336231     0.79600
N548        N  0.14705917  0.55625040  0.90305129    -0.78700
C549        C  0.11826628  0.52858781  0.90450429     0.82100
N550        N  0.08748149  0.53101592  0.87564420    -0.78600
C551        C  0.08509946  0.56110644  0.84577151     0.82200
N552        N  0.11361159  0.58905177  0.84486797    -0.80400
C553        C  0.14827578  0.29531980  0.87666075     0.79600
N554        N  0.15033185  0.32651810  0.90534155    -0.78700
C555        C  0.12179010  0.35452664  0.90502342     0.82100
N556        N  0.09152167  0.35173608  0.87546967    -0.78600
C557        C  0.08943320  0.32098558  0.84654401     0.82200
N558        N  0.11755200  0.29268635  0.84749822    -0.80400
C559        C  0.14588921  0.29258592  0.62066200     0.79600
N560        N  0.11619798  0.29069515  0.65126594    -0.78700
C561        C  0.08893250  0.31972140  0.65366707     0.82100
N562        N  0.09102356  0.35070150  0.62500104    -0.78600
C563        C  0.12041162  0.35293149  0.59420783     0.82200
N564        N  0.14795796  0.32391852  0.59214007    -0.80400
C565        C  0.14057644  0.58940745  0.62365814     0.79600
N566        N  0.14364780  0.55820211  0.59509665    -0.78700
C567        C  0.11622633  0.52913422  0.59544694     0.82100
N568        N  0.08587093  0.53087729  0.62501084    -0.78600
C569        C  0.08267677  0.56155882  0.65399780     0.82200
N570        N  0.10982118  0.59093291  0.65301552    -0.80400
O571        O  0.91445864  0.39455926  0.54845963    -0.73600
O572        O  0.91196019  0.47863517  0.95463907    -0.74500
O573        O  0.91187973  0.47751895  0.55003831    -0.63200
O574        O  0.91421007  0.39561894  0.95303101    -0.71600
O575        O  0.84885750  0.39312996  0.95353092    -0.71100
O576        O  0.84648133  0.47652407  0.54943991    -0.62400
O577        O  0.84656480  0.47772681  0.95471810    -0.74900
O578        O  0.84909985  0.39195986  0.54826303    -0.73700
Cu579      Cu  0.91536502  0.43666223  0.50156283     1.04600
Cu580      Cu  0.84539534  0.43476640  0.50152057     1.04300
C581        C  0.88232390  0.37962781  0.56269226     0.92600
C582        C  0.87908350  0.49177662  0.94025572     0.91800
C583        C  0.87886952  0.49039116  0.56441159     0.83900
C584        C  0.88196010  0.38105108  0.93852695     0.90200
C585        C  0.85790282  0.28993364  0.87597773     0.79600
N586        N  0.88858908  0.28823920  0.84657453    -0.78700
C587        C  0.91615663  0.31718659  0.84597105     0.82100
N588        N  0.91348001  0.34761742  0.87535765    -0.78600
C589        C  0.88324486  0.34944374  0.90504948     0.82200
N590        N  0.85536497  0.32081979  0.90502117    -0.80400
C591        C  0.85149490  0.58133364  0.87636267     0.79600
N592        N  0.88281736  0.58447070  0.84809360    -0.78700
C593        C  0.91186424  0.55711905  0.84865157     0.82100
N594        N  0.91009735  0.52683055  0.87824144    -0.78600
C595        C  0.87925651  0.52354932  0.90697024     0.82200
N596        N  0.84973982  0.55055486  0.90569451    -0.80400
C597        C  0.85077801  0.58084124  0.62589034     0.79600
N598        N  0.84969290  0.54991613  0.59680697    -0.78700
C599        C  0.87845237  0.52212653  0.59768707     0.82100
N600        N  0.90818032  0.52506611  0.62793766    -0.78600
C601        C  0.90943550  0.55566444  0.65718934     0.82200
N602        N  0.88090345  0.58357989  0.65593092    -0.80400
C603        C  0.85888057  0.28815193  0.62480376     0.79600
N604        N  0.88976895  0.28637949  0.65388436    -0.78700
C605        C  0.91737160  0.31526766  0.65413848     0.82100
N606        N  0.91449801  0.34569275  0.62482488    -0.78600
C607        C  0.88404481  0.34759295  0.59549740     0.82200
N608        N  0.85613767  0.31904513  0.59579393    -0.80400
C609        C  0.24822559  0.15835706  0.69867402    -0.18400
C610        C  0.21844071  0.18668821  0.69791628    -0.20600
C611        C  0.21174891  0.20916736  0.65902969     0.20000
C612        C  0.23514556  0.20301445  0.62042664    -0.03500
C613        C  0.26525801  0.17442720  0.62120724    -0.06600
C614        C  0.27177809  0.15206601  0.66055722     0.20300
C615        C  0.28893830  0.16839433  0.58277585     0.18500
C616        C  0.28183979  0.19053402  0.54370624    -0.18100
C617        C  0.25193486  0.21889115  0.54293226    -0.20300
C618        C  0.22868256  0.22562601  0.58122784     0.20000
C619        C  0.19935251  0.25478751  0.58120864    -0.33300
C620        C  0.17619768  0.26129400  0.61979462     0.00700
C621        C  0.18234414  0.23799614  0.65832087    -0.24600
C622        C  0.30177492  0.12384281  0.66119377    -0.29200
C623        C  0.32572144  0.11781475  0.62320722     0.06300
C624        C  0.31923671  0.14031733  0.58411401    -0.27900
H625        H  0.25294631  0.14143223  0.72913542     0.11100
H626        H  0.20072660  0.19116672  0.72784495     0.12200
H627        H  0.29952362  0.18598100  0.51386927     0.11300
H628        H  0.24710010  0.23574651  0.51252860     0.10500
H629        H  0.19453329  0.27233418  0.55123927     0.15900
H630        H  0.16474895  0.24286148  0.68831627     0.11800
H631        H  0.30670587  0.10676954  0.69156547     0.14700
H632        H  0.33734653  0.13560534  0.55457801     0.14400
C633        C  0.77264012  0.13670973  0.68795317    -0.18400
C634        C  0.80224700  0.16533292  0.68735277    -0.20600
C635        C  0.80039099  0.19689569  0.65690315     0.20000
C636        C  0.76829472  0.19973165  0.62692563    -0.03500
C637        C  0.73843394  0.17088520  0.62755358    -0.06600
C638        C  0.74067792  0.13916626  0.65813118     0.20300
C639        C  0.70646017  0.17371466  0.59742363     0.18500
C640        C  0.70445021  0.20536858  0.56715887    -0.18100
C641        C  0.73401179  0.23394090  0.56654917    -0.20300
C642        C  0.76605331  0.23132075  0.59619020     0.20000
C643        C  0.79583890  0.25978692  0.59557506    -0.33300
C644        C  0.82797640  0.25732266  0.62534283     0.00700
C645        C  0.83002228  0.22565579  0.65590018    -0.24600
C646        C  0.71106977  0.11036842  0.65814288    -0.29200
C647        C  0.67921093  0.11279332  0.62790761     0.06300
C648        C  0.67713823  0.14475960  0.59782926    -0.27900
H649        H  0.77482510  0.11252480  0.71162977     0.11100
H650        H  0.82667185  0.16272090  0.71061607     0.12200
H651        H  0.68005576  0.20796650  0.54384659     0.11300
H652        H  0.73184689  0.25807968  0.54281655     0.10500
H653        H  0.79381681  0.28397306  0.57185682     0.15900
H654        H  0.85457929  0.22337711  0.67906870     0.11800
H655        H  0.71302247  0.08596415  0.68160096     0.14700
H656        H  0.65277620  0.14711822  0.57441530     0.14400
C657        C  0.80562151  0.16264900  0.82038490    -0.18400
C658        C  0.77621456  0.13381452  0.81990665    -0.20600
C659        C  0.74269156  0.13771738  0.84718187     0.20000
C660        C  0.73893186  0.17087424  0.87548486    -0.03500
C661        C  0.76861583  0.19994783  0.87600165    -0.06600
C662        C  0.80202866  0.19589764  0.84816026     0.20300
C663        C  0.76476856  0.23309974  0.90427488     0.18500
C664        C  0.73147301  0.23682244  0.93191628    -0.18100
C665        C  0.70207959  0.20804101  0.93139852    -0.20300
C666        C  0.70550205  0.17503943  0.90325427     0.20000
C667        C  0.67607687  0.14614995  0.90252257    -0.33300
C668        C  0.67947795  0.11292964  0.87442726     0.00700
C669        C  0.71294341  0.10904101  0.84675766    -0.24600
C670        C  0.83114126  0.22521692  0.84844831    -0.29200
C671        C  0.82739612  0.25860408  0.87627793     0.06300
C672        C  0.79412833  0.26208594  0.90429354    -0.27900
H673        H  0.83118651  0.15897851  0.79893467     0.11100
H674        H  0.77968759  0.10841059  0.79814929     0.12200
H675        H  0.72809508  0.26207720  0.95384152     0.11300
H676        H  0.67662230  0.21162950  0.95298661     0.10500
H677        H  0.65051838  0.14962632  0.92397858     0.15900
H678        H  0.71603196  0.08356734  0.82496332     0.11800
H679        H  0.85669601  0.22200036  0.82682276     0.14700
H680        H  0.79081270  0.28753333  0.92595698     0.14400
C681        C  0.27888951  0.24680933  0.92496965    -0.18400
C682        C  0.30804377  0.21778167  0.92489272    -0.20600
C683        C  0.30255085  0.18266520  0.90086111     0.20000
C684        C  0.26758888  0.17697886  0.87605739    -0.03500
C685        C  0.23817014  0.20626366  0.87614242    -0.06600
C686        C  0.24374382  0.24120373  0.90102398     0.20300
C687        C  0.20320942  0.20055550  0.85137835     0.18500
C688        C  0.19800942  0.16575518  0.82662894    -0.18100
C689        C  0.22716277  0.13671965  0.82656078    -0.20300
C690        C  0.26198410  0.14203141  0.85123250     0.20000
C691        C  0.29123355  0.11297197  0.85157369    -0.33300
C692        C  0.32603402  0.11818635  0.87664131     0.00700
C693        C  0.33141031  0.15318904  0.90118569    -0.24600
C694        C  0.21416703  0.26997163  0.90142774    -0.29200
C695        C  0.17920607  0.26455884  0.87680172     0.06300
C696        C  0.17406299  0.22972189  0.85177599    -0.27900
H697        H  0.28372877  0.27358299  0.94404456     0.11100
H698        H  0.33483957  0.22270178  0.94391711     0.12200
H699        H  0.17135689  0.16097329  0.80733329     0.11300
H700        H  0.22245712  0.11007982  0.80723087     0.10500
H701        H  0.28668008  0.08614152  0.83249212     0.15900
H702        H  0.35821352  0.15768834  0.92040696     0.11800
H703        H  0.21860138  0.29676962  0.92065545     0.14700
H704        H  0.14724950  0.22511690  0.83266738     0.14400
C705        C  0.26439356  0.64544990  0.56377412    -0.18400
C706        C  0.29289275  0.67511662  0.56292985    -0.20600
C707        C  0.28917514  0.70833603  0.59066516     0.20000
C708        C  0.25624530  0.71186062  0.61931111    -0.03500
C709        C  0.22744278  0.68187514  0.62017041    -0.06600
C710        C  0.23164183  0.64849510  0.59233395     0.20300
C711        C  0.19469764  0.68512280  0.64915507     0.18500
C712        C  0.19077394  0.71859590  0.67651343    -0.18100
C713        C  0.21932904  0.74829475  0.67568895    -0.20300
C714        C  0.25235257  0.74505988  0.64750719     0.20000
C715        C  0.28179428  0.77410611  0.64750153    -0.33300
C716        C  0.31520954  0.77043744  0.61966951     0.00700
C717        C  0.31822849  0.73764583  0.59084462    -0.24600
C718        C  0.20321490  0.61859984  0.59369612    -0.29200
C719        C  0.17048341  0.62137578  0.62263820     0.06300
C720        C  0.16652808  0.65486040  0.65030991    -0.27900
H721        H  0.26817651  0.61986334  0.54241553     0.11100
H722        H  0.31818587  0.67182621  0.54102320     0.12200
H723        H  0.16562067  0.72176242  0.69868621     0.11300
H724        H  0.21569206  0.77373618  0.69733045     0.10500
H725        H  0.27887148  0.79930785  0.66969682     0.15900
H726        H  0.34362461  0.73442108  0.56902378     0.11800
H727        H  0.20676742  0.59304095  0.57218550     0.14700
H728        H  0.14147523  0.65749884  0.67276689     0.14400
C729        C  0.74083437  0.64969026  0.54895132    -0.18400
C730        C  0.71243014  0.67958539  0.54814390    -0.20600
C731        C  0.70848825  0.70553863  0.58470192     0.20000
C732        C  0.73356923  0.70139833  0.62230331    -0.03500
C733        C  0.76214606  0.67123949  0.62314835    -0.06600
C734        C  0.76579429  0.64522101  0.58631973     0.20300
C735        C  0.78706371  0.66717905  0.66088014     0.18500
C736        C  0.78310668  0.69297861  0.69748154    -0.18100
C737        C  0.75486793  0.72283854  0.69662555    -0.20300
C738        C  0.73007728  0.72733613  0.65920117     0.20000
C739        C  0.70166058  0.75715479  0.65830955    -0.33300
C740        C  0.67610503  0.76128152  0.62134703     0.00700
C741        C  0.67980964  0.73538227  0.58451189    -0.24600
C742        C  0.79445469  0.61539153  0.58749700    -0.29200
C743        C  0.81973497  0.61151256  0.62486297     0.06300
C744        C  0.81564349  0.63751079  0.66141468    -0.27900
H745        H  0.74328347  0.63004597  0.52030501     0.11100
H746        H  0.69351365  0.68237291  0.51897046     0.12200
H747        H  0.80191920  0.69011289  0.72675391     0.11300
H748        H  0.75238910  0.74242760  0.72532320     0.10500
H749        H  0.69900713  0.77675144  0.68699476     0.15900
H750        H  0.66044415  0.73843396  0.55572520     0.11800
H751        H  0.79741436  0.59558448  0.55904819     0.14700
H752        H  0.83467270  0.63463712  0.69052757     0.14400
C753        C  0.29685838  0.67214606  0.93409305    -0.18400
C754        C  0.26759024  0.64329614  0.93442757    -0.20600
C755        C  0.23705542  0.64425823  0.90269091     0.20000
C756        C  0.23634011  0.67416223  0.86973904    -0.03500
C757        C  0.26593614  0.70326979  0.86936162    -0.06600
C758        C  0.29606091  0.70242352  0.90202551     0.20300
C759        C  0.26515502  0.73338694  0.83666356     0.18500
C760        C  0.23513746  0.73375112  0.80418299    -0.18100
C761        C  0.20572066  0.70491823  0.80462594    -0.20300
C762        C  0.20590614  0.67518151  0.83745616     0.20000
C763        C  0.17612222  0.64659041  0.83874887    -0.33300
C764        C  0.17642724  0.61684730  0.87183914     0.00700
C765        C  0.20720001  0.61588069  0.90350637    -0.24600
C766        C  0.32466692  0.73204976  0.90243068    -0.29200
C767        C  0.32369491  0.76273481  0.87065176     0.06300
C768        C  0.29406485  0.76287401  0.83744409    -0.27900
H769        H  0.32012126  0.67085446  0.95899080     0.11100
H770        H  0.26877539  0.62022275  0.95957901     0.12200
H771        H  0.23417705  0.75659605  0.77876903     0.11300
H772        H  0.18261056  0.70604813  0.77952224     0.10500
H773        H  0.15272800  0.64757555  0.81393938     0.15900
H774        H  0.20789215  0.59313590  0.92914757     0.11800
H775        H  0.34740798  0.73141560  0.92806107     0.14700
H776        H  0.29317132  0.78612804  0.81245781     0.14400
C777        C  0.71801149  0.62725873  0.91822189    -0.18400
C778        C  0.68914391  0.65663652  0.91878742    -0.20600
C779        C  0.69591997  0.69300133  0.89772053     0.20000
C780        C  0.73197807  0.69963527  0.87537183    -0.03500
C781        C  0.76108501  0.66998234  0.87476332    -0.06600
C782        C  0.75416734  0.63372703  0.89658986     0.20300
C783        C  0.79719974  0.67676009  0.85263917     0.18500
C784        C  0.80385932  0.71294268  0.83114843    -0.18100
C785        C  0.77504682  0.74231566  0.83177422    -0.20300
C786        C  0.73907119  0.73596909  0.85384129     0.20000
C787        C  0.71012073  0.76535152  0.85477211    -0.33300
C788        C  0.67409221  0.75912587  0.87713088     0.00700
C789        C  0.66730498  0.72281799  0.89863357    -0.24600
C790        C  0.78364147  0.60476217  0.89678901    -0.29200
C791        C  0.81992647  0.61146785  0.87523363     0.06300
C792        C  0.82620841  0.64744518  0.85279875    -0.27900
H793        H  0.71215889  0.59954572  0.93503195     0.11100
H794        H  0.66158156  0.65099336  0.93596564     0.12200
H795        H  0.83144468  0.71859011  0.81398217     0.11300
H796        H  0.78092941  0.77005054  0.81503044     0.10500
H797        H  0.71583255  0.79323924  0.83822031     0.15900
H798        H  0.63960170  0.71756930  0.91574398     0.11800
H799        H  0.77830985  0.57702485  0.91381830     0.14700
H800        H  0.85403672  0.65302949  0.83604526     0.14400
loop_ 
_geom_bond_atom_site_label_1 
_geom_bond_atom_site_label_2 
_geom_bond_distance 
_geom_bond_site_symmetry_2 
_ccdc_geom_bond_type 
O1           Cu9   2.018       .  S
O1           C11   1.278       .  A
O2         Cu409   2.016       .  S
O2           C12   1.278       .  A
O3           Cu9   2.015       .  S
O3           C13   1.278       .  A
O4         Cu409   2.015       .  S
O4           C14   1.278       .  A
O5          Cu10   2.003       .  S
O5           C14   1.277       .  A
O6         Cu410   2.000       .  S
O6           C13   1.276       .  A
O7          Cu10   2.002       .  S
O7           C12   1.277       .  A
O8         Cu410   2.002       .  S
O8           C11   1.277       .  A
Cu9         O402   2.016   1_554  S
Cu9         O404   2.015   1_554  S
Cu9        Cu410   2.377       .  S
Cu10        O406   1.999       .  S
Cu10        O408   2.002       .  S
Cu10       Cu409   2.377       .  S
C11          C37   1.465       .  S
C12          C17   1.465       .  S
C13          C29   1.463       .  S
C14          C25   1.466       .  S
C15         C388   1.484       .  S
C15          N16   1.363       .  A
C15          N20   1.360       .  A
N16          C17   1.360       .  A
C17          N18   1.356       .  A
N18          C19   1.355       .  A
C19          C50   1.463       .  S
C19          N20   1.356       .  A
C21         C367   1.482       .  S
C21          N22   1.360       .  A
C21          N26   1.361       .  A
N22          C23   1.356       .  A
C23          C64   1.460       .  S
C23          N24   1.357       .  A
N24          C25   1.356       .  A
C25          N26   1.357       .  A
C27         C340   1.484       .  S
C27          N28   1.361       .  A
C27          N32   1.361       .  A
N28          C29   1.359       .  A
C29          N30   1.355       .  A
N30          C31   1.355       .  A
C31          C51   1.464       .  S
C31          N32   1.357       .  A
C33         C316   1.488       .  S
C33          N34   1.362       .  A
C33          N38   1.362       .  A
N34          C35   1.359       .  A
C35          C65   1.464       .  S
C35          N36   1.355       .  A
N36          C37   1.354       .  A
C37          N38   1.358       .  A
O39         Cu47   2.014       .  S
O39          C49   1.278       .  A
O40         Cu47   2.015       .  S
O40          C50   1.278       .  A
O41         Cu47   2.014       .  S
O41          C51   1.278       .  A
O42         Cu47   2.012       .  S
O42          C52   1.277       .  A
O43         Cu48   1.998       .  S
O43          C52   1.276       .  A
O44         Cu48   2.000       .  S
O44          C51   1.277       .  A
O45         Cu48   1.998       .  S
O45          C50   1.276       .  A
O46         Cu48   1.999       .  S
O46          C49   1.276       .  A
Cu47        Cu48   2.378       .  S
C49          C97   1.463   1_565  S
C52          C89   1.462   1_565  S
O53         Cu61   1.993       .  S
O53          C63   1.275       .  A
O54         Cu61   1.990       .  S
O54          C64   1.275       .  A
O55         Cu61   2.001       .  S
O55          C65   1.277       .  A
O56         Cu61   1.998       .  S
O56          C66   1.276       .  A
O57         Cu62   2.007       .  S
O57          C66   1.277       .  A
O58         Cu62   2.011       .  S
O58          C65   1.277       .  A
O59         Cu62   2.016       .  S
O59          C64   1.278       .  A
O60         Cu62   2.016       .  S
O60          C63   1.279       .  A
Cu61        Cu62   2.379       .  S
C63         C101   1.462   1_565  S
C66          C83   1.459   1_565  S
O67        Cu475   2.014       .  S
O67          C77   1.278       .  A
O68         Cu75   2.015       .  S
O68          C78   1.278       .  A
O69        Cu475   2.013       .  S
O69          C79   1.278       .  A
O70         Cu75   2.011       .  S
O70          C80   1.277       .  A
O71         Cu76   1.999       .  S
O71          C80   1.276       .  A
O72        Cu476   2.000       .  S
O72          C79   1.277       .  A
O73         Cu76   1.998       .  S
O73          C78   1.276       .  A
O74        Cu476   1.996       .  S
O74          C77   1.276       .  A
Cu75        O467   2.014   1_554  S
Cu75        O469   2.012   1_554  S
Cu75        Cu76   2.378       .  S
Cu76        O472   2.000   1_554  S
Cu76        O474   1.996   1_554  S
C77          C85   1.462       .  S
C78          C95   1.463       .  S
C79          C91   1.463       .  S
C80         C103   1.462       .  S
C81         C292   1.481       .  S
C81          N82   1.359       .  A
C81          N86   1.361       .  A
N82          C83   1.355       .  A
C83          N84   1.354       .  A
N84          C85   1.356       .  A
C85          N86   1.358       .  A
C87         C268   1.485       .  S
C87          N88   1.361       .  A
C87          N92   1.361       .  A
N88          C89   1.358       .  A
C89          N90   1.355       .  A
N90          C91   1.355       .  A
C91          N92   1.357       .  A
C93         C247   1.484       .  S
C93          N94   1.360       .  A
C93          N98   1.361       .  A
N94          C95   1.356       .  A
C95          N96   1.356       .  A
N96          C97   1.356       .  A
C97          N98   1.358       .  A
C99         C223   1.478       .  S
C99         N100   1.359       .  A
C99         N104   1.360       .  A
N100        C101   1.355       .  A
C101        N102   1.356       .  A
N102        C103   1.356       .  A
C103        N104   1.358       .  A
O105       Cu113   2.017   1_455  S
O105        C115   1.278       .  A
O106       Cu113   2.018       .  S
O106        C116   1.279       .  A
O107       Cu113   2.010       .  S
O107        C117   1.277       .  A
O108       Cu113   2.013   1_455  S
O108        C118   1.278       .  A
O109       Cu114   2.003   1_455  S
O109        C118   1.277       .  A
O110       Cu114   2.000       .  S
O110        C117   1.276       .  A
O111       Cu114   1.995       .  S
O111        C116   1.276       .  A
O112       Cu114   1.991   1_455  S
O112        C115   1.275       .  A
Cu113      Cu114   2.378       .  S
C115        C151   1.461       .  S
C116        C201   1.463       .  S
C117        C193   1.461       .  S
C118        C169   1.465       .  S
O119       Cu127   1.996   1_655  S
O119        C129   1.276       .  A
O120       Cu127   1.998       .  S
O120        C130   1.276       .  A
O121       Cu127   1.997       .  S
O121        C131   1.276       .  A
O122       Cu127   1.998   1_655  S
O122        C132   1.276       .  A
O123       Cu128   2.014   1_655  S
O123        C132   1.278       .  A
O124       Cu128   2.013       .  S
O124        C131   1.278       .  A
O125       Cu128   2.009       .  S
O125        C130   1.277       .  A
O126       Cu128   2.008   1_655  S
O126        C129   1.277       .  A
Cu127      Cu128   2.379       .  S
C129        C205   1.460       .  S
C130        C157   1.461       .  S
C131        C161   1.462       .  S
C132        C187   1.463       .  S
O133       Cu541   2.001   1_554  S
O133        C143   1.276       .  A
O134       Cu141   1.996       .  S
O134        C144   1.276       .  A
O135       Cu541   2.003   1_554  S
O135        C145   1.277       .  A
O136       Cu141   2.003       .  S
O136        C146   1.277       .  A
O137       Cu542   2.016       .  S
O137        C146   1.278       .  A
O138       Cu142   2.017       .  S
O138        C145   1.278       .  A
O139       Cu542   2.014       .  S
O139        C144   1.278       .  A
O140       Cu142   2.019       .  S
O140        C143   1.279       .  A
Cu141       O533   2.001       .  S
Cu141       O535   2.003       .  S
Cu141      Cu542   2.377       .  S
Cu142       O537   2.016   1_554  S
Cu142       O539   2.015   1_554  S
Cu142      Cu541   2.377   1_554  S
C143        C167   1.466       .  S
C144        C155   1.462       .  S
C145        C163   1.465       .  S
C146        C149   1.466       .  S
C147        C364   1.483       .  S
C147        N148   1.362       .  A
C147        N152   1.360       .  A
N148        C149   1.357       .  A
C149        N150   1.355       .  A
N150        C151   1.356       .  A
C151        N152   1.357       .  A
C153        C295   1.482       .  S
C153        N154   1.362       .  A
C153        N158   1.359       .  A
N154        C155   1.358       .  A
C155        N156   1.355       .  A
N156        C157   1.354       .  A
C157        N158   1.356       .  A
C159        C220   1.480       .  S
C159        N160   1.359       .  A
C159        N164   1.362       .  A
N160        C161   1.355       .  A
C161        N162   1.355       .  A
N162        C163   1.356       .  A
C163        N164   1.360       .  A
C165        C319   1.488       .  S
C165        N166   1.362       .  A
C165        N170   1.362       .  A
N166        C167   1.358       .  A
C167        N168   1.356       .  A
N168        C169   1.356       .  A
C169        N170   1.359       .  A
O171       Cu179   1.997       .  S
O171        C181   1.276       .  A
O172       Cu579   1.997       .  S
O172        C182   1.276       .  A
O173       Cu179   2.003       .  S
O173        C183   1.277       .  A
O174       Cu579   2.005       .  S
O174        C184   1.277       .  A
O175       Cu580   2.011       .  S
O175        C184   1.277       .  A
O176       Cu180   2.010       .  S
O176        C183   1.277       .  A
O177       Cu580   2.015       .  S
O177        C182   1.278       .  A
O178       Cu180   2.014       .  S
O178        C181   1.278       .  A
Cu179       O572   1.997   1_554  S
Cu179       O574   2.005   1_554  S
Cu179      Cu180   2.378       .  S
Cu180       O575   2.011   1_554  S
Cu180       O577   2.015   1_554  S
C181        C207   1.462       .  S
C182        C195   1.463       .  S
C183        C199   1.463       .  S
C184        C189   1.464       .  S
C185        C271   1.486       .  S
C185        N186   1.361       .  A
C185        N190   1.361       .  A
N186        C187   1.358       .  A
C187        N188   1.356       .  A
N188        C189   1.355       .  A
C189        N190   1.358       .  A
C191        C391   1.483       .  S
C191        N192   1.360       .  A
C191        N196   1.362       .  A
N192        C193   1.356       .  A
C193        N194   1.354       .  A
N194        C195   1.356       .  A
C195        N196   1.359       .  A
C197        C343   1.483       .  S
C197        N198   1.361       .  A
C197        N202   1.361       .  A
N198        C199   1.359       .  A
C199        N200   1.356       .  A
N200        C201   1.355       .  A
C201        N202   1.357       .  A
C203        C244   1.483       .  S
C203        N204   1.361       .  A
C203        N208   1.361       .  A
N204        C205   1.358       .  A
C205        N206   1.355       .  A
N206        C207   1.354       .  A
C207        N208   1.356       .  A
C209        C210   1.397       .  A
C209        C214   1.403       .  A
C209        H225   1.084       .  S
C210        C211   1.403       .  A
C210        H226   1.084       .  S
C211        C221   1.399       .  A
C211        C212   1.411       .  A
C212        C218   1.412       .  A
C212        C213   1.411       .  A
C213        C215   1.411       .  A
C213        C214   1.411       .  A
C214        C222   1.399       .  A
C215        C224   1.404       .  A
C215        C216   1.404       .  A
C216        C217   1.400       .  A
C216        H227   1.082       .  S
C217        C218   1.404       .  A
C217        H228   1.082       .  S
C218        C219   1.405       .  A
C219        C220   1.407       .  A
C219        H229   1.084       .  S
C220        C221   1.407       .  A
C221        H230   1.085       .  S
C222        C223   1.406       .  A
C222        H231   1.085       .  S
C223        C224   1.407       .  A
C224        H232   1.083       .  S
C233        C234   1.399       .  A
C233        C238   1.404       .  A
C233        H249   1.084       .  S
C234        C235   1.404       .  A
C234        H250   1.083       .  S
C235        C245   1.403       .  A
C235        C236   1.411       .  A
C236        C242   1.411       .  A
C236        C237   1.411       .  A
C237        C239   1.411       .  A
C237        C238   1.411       .  A
C238        C246   1.403       .  A
C239        C248   1.400       .  A
C239        C240   1.403       .  A
C240        C241   1.397       .  A
C240        H251   1.084       .  S
C241        C242   1.403       .  A
C241        H252   1.084       .  S
C242        C243   1.400       .  A
C243        C244   1.408       .  A
C243        H253   1.084       .  S
C244        C245   1.409       .  A
C245        H254   1.084       .  S
C246        C247   1.409       .  A
C246        H255   1.085       .  S
C247        C248   1.408       .  A
C248        H256   1.084       .  S
C257        C258   1.399       .  A
C257        C262   1.404       .  A
C257        H273   1.084       .  S
C258        C259   1.404       .  A
C258        H274   1.085       .  S
C259        C269   1.404       .  A
C259        C260   1.411       .  A
C260        C266   1.411       .  A
C260        C261   1.412       .  A
C261        C263   1.411       .  A
C261        C262   1.411       .  A
C262        C270   1.404       .  A
C263        C272   1.402       .  A
C263        C264   1.403       .  A
C264        C265   1.398       .  A
C264        H275   1.083       .  S
C265        C266   1.403       .  A
C265        H276   1.083       .  S
C266        C267   1.401       .  A
C267        C268   1.408       .  A
C267        H277   1.083       .  S
C268        C269   1.409       .  A
C269        H278   1.086       .  S
C270        C271   1.409       .  A
C270        H279   1.085       .  S
C271        C272   1.408       .  A
C272        H280   1.084       .  S
C281        C282   1.398       .  A
C281        C286   1.403       .  A
C281        H297   1.084       .  S
C282        C283   1.403       .  A
C282        H298   1.084       .  S
C283        C293   1.401       .  A
C283        C284   1.411       .  A
C284        C290   1.411       .  A
C284        C285   1.410       .  A
C285        C287   1.411       .  A
C285        C286   1.411       .  A
C286        C294   1.402       .  A
C287        C296   1.401       .  A
C287        C288   1.403       .  A
C288        C289   1.398       .  A
C288        H299   1.084       .  S
C289        C290   1.403       .  A
C289        H300   1.084       .  S
C290        C291   1.401       .  A
C291        C292   1.408       .  A
C291        H301   1.084       .  S
C292        C293   1.407       .  A
C293        H302   1.086       .  S
C294        C295   1.407       .  A
C294        H303   1.085       .  S
C295        C296   1.408       .  A
C296        H304   1.085       .  S
C305        C306   1.398       .  A
C305        C310   1.403       .  A
C305        H321   1.084       .  S
C306        C307   1.403       .  A
C306        H322   1.084       .  S
C307        C317   1.402       .  A
C307        C308   1.410       .  A
C308        C314   1.411       .  A
C308        C309   1.413       .  A
C309        C311   1.411       .  A
C309        C310   1.411       .  A
C310        C318   1.402       .  A
C311        C320   1.405       .  A
C311        C312   1.404       .  A
C312        C313   1.400       .  A
C312        H323   1.084       .  S
C313        C314   1.404       .  A
C313        H324   1.084       .  S
C314        C315   1.405       .  A
C315        C316   1.410       .  A
C315        H325   1.085       .  S
C316        C317   1.409       .  A
C317        H326   1.085       .  S
C318        C319   1.409       .  A
C318        H327   1.085       .  S
C319        C320   1.410       .  A
C320        H328   1.085       .  S
C329        C330   1.401       .  A
C329        C334   1.405       .  A
C329        H345   1.084       .  S
C330        C331   1.405       .  A
C330        H346   1.083       .  S
C331        C341   1.406       .  A
C331        C332   1.412       .  A
C332        C338   1.411       .  A
C332        C333   1.412       .  A
C333        C335   1.411       .  A
C333        C334   1.412       .  A
C334        C342   1.406       .  A
C335        C344   1.399       .  A
C335        C336   1.403       .  A
C336        C337   1.396       .  A
C336        H347   1.083       .  S
C337        C338   1.403       .  A
C337        H348   1.085       .  S
C338        C339   1.400       .  A
C339        C340   1.407       .  A
C339        H349   1.085       .  S
C340        C341   1.410       .  A
C341        H350   1.084       .  S
C342        C343   1.410       .  A
C342        H351   1.085       .  S
C343        C344   1.406       .  A
C344        H352   1.084       .  S
C353        C354   1.396       .  A
C353        C358   1.402       .  A
C353        H369   1.083       .  S
C354        C355   1.402       .  A
C354        H370   1.083       .  S
C355        C365   1.400       .  A
C355        C356   1.411       .  A
C356        C362   1.411       .  A
C356        C357   1.410       .  A
C357        C359   1.411       .  A
C357        C358   1.411       .  A
C358        C366   1.399       .  A
C359        C368   1.403       .  A
C359        C360   1.404       .  A
C360        C361   1.399       .  A
C360        H371   1.083       .  S
C361        C362   1.404       .  A
C361        H372   1.083       .  S
C362        C363   1.403       .  A
C363        C364   1.409       .  A
C363        H373   1.084       .  S
C364        C365   1.407       .  A
C365        H374   1.085       .  S
C366        C367   1.407       .  A
C366        H375   1.085       .  S
C367        C368   1.409       .  A
C368        H376   1.084       .  S
C377        C378   1.399       .  A
C377        C382   1.404       .  A
C377        H393   1.084       .  S
C378        C379   1.404       .  A
C378        H394   1.083       .  S
C379        C389   1.404       .  A
C379        C380   1.411       .  A
C380        C386   1.411       .  A
C380        C381   1.412       .  A
C381        C383   1.411       .  A
C381        C382   1.411       .  A
C382        C390   1.404       .  A
C383        C392   1.401       .  A
C383        C384   1.403       .  A
C384        C385   1.398       .  A
C384        H395   1.084       .  S
C385        C386   1.403       .  A
C385        H396   1.084       .  S
C386        C387   1.401       .  A
C387        C388   1.408       .  A
C387        H397   1.085       .  S
C388        C389   1.408       .  A
C389        H398   1.084       .  S
C390        C391   1.408       .  A
C390        H399   1.085       .  S
C391        C392   1.408       .  A
C392        H400   1.085       .  S
O401       Cu409   2.017       .  S
O401        C411   1.278       .  A
O402        C412   1.278       .  A
O403       Cu409   2.015       .  S
O403        C413   1.278       .  A
O404        C414   1.278       .  A
O405       Cu410   2.003   1_556  S
O405        C414   1.277       .  A
O406        C413   1.276       .  A
O407       Cu410   2.002   1_556  S
O407        C412   1.277       .  A
O408        C411   1.277       .  A
C411        C437   1.465       .  S
C412        C417   1.466       .  S
C413        C429   1.463       .  S
C414        C425   1.466       .  S
C415        C788   1.484       .  S
C415        N416   1.363       .  A
C415        N420   1.360       .  A
N416        C417   1.360       .  A
C417        N418   1.356       .  A
N418        C419   1.355       .  A
C419        C450   1.463       .  S
C419        N420   1.356       .  A
C421        C767   1.482       .  S
C421        N422   1.360       .  A
C421        N426   1.361       .  A
N422        C423   1.356       .  A
C423        C464   1.460       .  S
C423        N424   1.357       .  A
N424        C425   1.356       .  A
C425        N426   1.357       .  A
C427        C740   1.483       .  S
C427        N428   1.361       .  A
C427        N432   1.361       .  A
N428        C429   1.359       .  A
C429        N430   1.355       .  A
N430        C431   1.355       .  A
C431        C451   1.464       .  S
C431        N432   1.357       .  A
C433        C716   1.488       .  S
C433        N434   1.362       .  A
C433        N438   1.362       .  A
N434        C435   1.359       .  A
C435        C465   1.464       .  S
C435        N436   1.355       .  A
N436        C437   1.354       .  A
C437        N438   1.358       .  A
O439       Cu447   2.013       .  S
O439        C449   1.278       .  A
O440       Cu447   2.014       .  S
O440        C450   1.278       .  A
O441       Cu447   2.014       .  S
O441        C451   1.278       .  A
O442       Cu447   2.012       .  S
O442        C452   1.277       .  A
O443       Cu448   1.998       .  S
O443        C452   1.276       .  A
O444       Cu448   2.000       .  S
O444        C451   1.277       .  A
O445       Cu448   1.998       .  S
O445        C450   1.276       .  A
O446       Cu448   1.999       .  S
O446        C449   1.276       .  A
Cu447      Cu448   2.378       .  S
C449        C497   1.463   1_565  S
C452        C489   1.462   1_565  S
O453       Cu461   1.993       .  S
O453        C463   1.275       .  A
O454       Cu461   1.990       .  S
O454        C464   1.275       .  A
O455       Cu461   2.001       .  S
O455        C465   1.277       .  A
O456       Cu461   1.998       .  S
O456        C466   1.276       .  A
O457       Cu462   2.007       .  S
O457        C466   1.277       .  A
O458       Cu462   2.011       .  S
O458        C465   1.277       .  A
O459       Cu462   2.016       .  S
O459        C464   1.278       .  A
O460       Cu462   2.016       .  S
O460        C463   1.279       .  A
Cu461      Cu462   2.379       .  S
C463        C501   1.461   1_565  S
C466        C483   1.459   1_565  S
O467        C477   1.278       .  A
O468       Cu475   2.015       .  S
O468        C478   1.278       .  A
O469        C479   1.278       .  A
O470       Cu475   2.011       .  S
O470        C480   1.277       .  A
O471       Cu476   2.000       .  S
O471        C480   1.277       .  A
O472        C479   1.277       .  A
O473       Cu476   1.998       .  S
O473        C478   1.276       .  A
O474        C477   1.276       .  A
Cu475      Cu476   2.378       .  S
C477        C485   1.462       .  S
C478        C495   1.463       .  S
C479        C491   1.463       .  S
C480        C503   1.462       .  S
C481        C692   1.481       .  S
C481        N482   1.359       .  A
C481        N486   1.361       .  A
N482        C483   1.355       .  A
C483        N484   1.354       .  A
N484        C485   1.355       .  A
C485        N486   1.358       .  A
C487        C668   1.485       .  S
C487        N488   1.361       .  A
C487        N492   1.361       .  A
N488        C489   1.358       .  A
C489        N490   1.355       .  A
N490        C491   1.355       .  A
C491        N492   1.357       .  A
C493        C647   1.484       .  S
C493        N494   1.360       .  A
C493        N498   1.361       .  A
N494        C495   1.356       .  A
C495        N496   1.356       .  A
N496        C497   1.356       .  A
C497        N498   1.358       .  A
C499        C623   1.478       .  S
C499        N500   1.359       .  A
C499        N504   1.360       .  A
N500        C501   1.355       .  A
C501        N502   1.356       .  A
N502        C503   1.356       .  A
C503        N504   1.358       .  A
O505       Cu513   2.016   1_455  S
O505        C515   1.278       .  A
O506       Cu513   2.018       .  S
O506        C516   1.279       .  A
O507       Cu513   2.010       .  S
O507        C517   1.277       .  A
O508       Cu513   2.013   1_455  S
O508        C518   1.278       .  A
O509       Cu514   2.003   1_455  S
O509        C518   1.277       .  A
O510       Cu514   1.999       .  S
O510        C517   1.276       .  A
O511       Cu514   1.995       .  S
O511        C516   1.276       .  A
O512       Cu514   1.991   1_455  S
O512        C515   1.275       .  A
Cu513      Cu514   2.378       .  S
C515        C551   1.460       .  S
C516        C601   1.463       .  S
C517        C593   1.461       .  S
C518        C569   1.465       .  S
O519       Cu527   1.996   1_655  S
O519        C529   1.276       .  A
O520       Cu527   1.998       .  S
O520        C530   1.276       .  A
O521       Cu527   1.996       .  S
O521        C531   1.276       .  A
O522       Cu527   1.998   1_655  S
O522        C532   1.276       .  A
O523       Cu528   2.014   1_655  S
O523        C532   1.278       .  A
O524       Cu528   2.013       .  S
O524        C531   1.278       .  A
O525       Cu528   2.009       .  S
O525        C530   1.277       .  A
O526       Cu528   2.008   1_655  S
O526        C529   1.277       .  A
Cu527      Cu528   2.379       .  S
C529        C605   1.460       .  S
C530        C557   1.461       .  S
C531        C561   1.462       .  S
C532        C587   1.463       .  S
O533        C543   1.276       .  A
O534       Cu541   1.997       .  S
O534        C544   1.276       .  A
O535        C545   1.277       .  A
O536       Cu541   2.003       .  S
O536        C546   1.277       .  A
O537        C546   1.278       .  A
O538       Cu542   2.017       .  S
O538        C545   1.278       .  A
O539        C544   1.278       .  A
O540       Cu542   2.019       .  S
O540        C543   1.279       .  A
C543        C567   1.466       .  S
C544        C555   1.462       .  S
C545        C563   1.465       .  S
C546        C549   1.465       .  S
C547        C764   1.483       .  S
C547        N548   1.362       .  A
C547        N552   1.360       .  A
N548        C549   1.357       .  A
C549        N550   1.355       .  A
N550        C551   1.356       .  A
C551        N552   1.357       .  A
C553        C695   1.482       .  S
C553        N554   1.362       .  A
C553        N558   1.359       .  A
N554        C555   1.358       .  A
C555        N556   1.355       .  A
N556        C557   1.354       .  A
C557        N558   1.355       .  A
C559        C620   1.480       .  S
C559        N560   1.359       .  A
C559        N564   1.362       .  A
N560        C561   1.355       .  A
C561        N562   1.355       .  A
N562        C563   1.356       .  A
C563        N564   1.360       .  A
C565        C719   1.488       .  S
C565        N566   1.362       .  A
C565        N570   1.362       .  A
N566        C567   1.358       .  A
C567        N568   1.356       .  A
N568        C569   1.356       .  A
C569        N570   1.359       .  A
O571       Cu579   1.996       .  S
O571        C581   1.276       .  A
O572        C582   1.276       .  A
O573       Cu579   2.003       .  S
O573        C583   1.277       .  A
O574        C584   1.277       .  A
O575        C584   1.277       .  A
O576       Cu580   2.010       .  S
O576        C583   1.277       .  A
O577        C582   1.278       .  A
O578       Cu580   2.014       .  S
O578        C581   1.278       .  A
Cu579      Cu580   2.378       .  S
C581        C607   1.462       .  S
C582        C595   1.464       .  S
C583        C599   1.463       .  S
C584        C589   1.464       .  S
C585        C671   1.486       .  S
C585        N586   1.361       .  A
C585        N590   1.361       .  A
N586        C587   1.358       .  A
C587        N588   1.356       .  A
N588        C589   1.355       .  A
C589        N590   1.358       .  A
C591        C791   1.483       .  S
C591        N592   1.360       .  A
C591        N596   1.362       .  A
N592        C593   1.355       .  A
C593        N594   1.354       .  A
N594        C595   1.356       .  A
C595        N596   1.360       .  A
C597        C743   1.483       .  S
C597        N598   1.361       .  A
C597        N602   1.361       .  A
N598        C599   1.359       .  A
C599        N600   1.356       .  A
N600        C601   1.355       .  A
C601        N602   1.357       .  A
C603        C644   1.483       .  S
C603        N604   1.361       .  A
C603        N608   1.361       .  A
N604        C605   1.358       .  A
C605        N606   1.355       .  A
N606        C607   1.354       .  A
C607        N608   1.356       .  A
C609        C610   1.397       .  A
C609        C614   1.403       .  A
C609        H625   1.084       .  S
C610        C611   1.403       .  A
C610        H626   1.084       .  S
C611        C621   1.399       .  A
C611        C612   1.411       .  A
C612        C618   1.412       .  A
C612        C613   1.411       .  A
C613        C615   1.411       .  A
C613        C614   1.411       .  A
C614        C622   1.399       .  A
C615        C624   1.404       .  A
C615        C616   1.404       .  A
C616        C617   1.400       .  A
C616        H627   1.082       .  S
C617        C618   1.403       .  A
C617        H628   1.082       .  S
C618        C619   1.405       .  A
C619        C620   1.407       .  A
C619        H629   1.084       .  S
C620        C621   1.407       .  A
C621        H630   1.085       .  S
C622        C623   1.406       .  A
C622        H631   1.085       .  S
C623        C624   1.407       .  A
C624        H632   1.083       .  S
C633        C634   1.399       .  A
C633        C638   1.404       .  A
C633        H649   1.084       .  S
C634        C635   1.404       .  A
C634        H650   1.083       .  S
C635        C645   1.403       .  A
C635        C636   1.411       .  A
C636        C642   1.411       .  A
C636        C637   1.411       .  A
C637        C639   1.411       .  A
C637        C638   1.411       .  A
C638        C646   1.403       .  A
C639        C648   1.400       .  A
C639        C640   1.403       .  A
C640        C641   1.397       .  A
C640        H651   1.084       .  S
C641        C642   1.403       .  A
C641        H652   1.084       .  S
C642        C643   1.400       .  A
C643        C644   1.407       .  A
C643        H653   1.084       .  S
C644        C645   1.409       .  A
C645        H654   1.084       .  S
C646        C647   1.409       .  A
C646        H655   1.085       .  S
C647        C648   1.408       .  A
C648        H656   1.084       .  S
C657        C658   1.399       .  A
C657        C662   1.404       .  A
C657        H673   1.084       .  S
C658        C659   1.404       .  A
C658        H674   1.085       .  S
C659        C669   1.404       .  A
C659        C660   1.411       .  A
C660        C666   1.411       .  A
C660        C661   1.412       .  A
C661        C663   1.411       .  A
C661        C662   1.411       .  A
C662        C670   1.404       .  A
C663        C672   1.402       .  A
C663        C664   1.403       .  A
C664        C665   1.398       .  A
C664        H675   1.083       .  S
C665        C666   1.403       .  A
C665        H676   1.083       .  S
C666        C667   1.401       .  A
C667        C668   1.408       .  A
C667        H677   1.083       .  S
C668        C669   1.409       .  A
C669        H678   1.086       .  S
C670        C671   1.409       .  A
C670        H679   1.085       .  S
C671        C672   1.408       .  A
C672        H680   1.084       .  S
C681        C682   1.398       .  A
C681        C686   1.403       .  A
C681        H697   1.084       .  S
C682        C683   1.403       .  A
C682        H698   1.085       .  S
C683        C693   1.401       .  A
C683        C684   1.411       .  A
C684        C690   1.411       .  A
C684        C685   1.410       .  A
C685        C687   1.411       .  A
C685        C686   1.411       .  A
C686        C694   1.402       .  A
C687        C696   1.401       .  A
C687        C688   1.403       .  A
C688        C689   1.398       .  A
C688        H699   1.084       .  S
C689        C690   1.403       .  A
C689        H700   1.084       .  S
C690        C691   1.401       .  A
C691        C692   1.408       .  A
C691        H701   1.084       .  S
C692        C693   1.407       .  A
C693        H702   1.086       .  S
C694        C695   1.407       .  A
C694        H703   1.085       .  S
C695        C696   1.408       .  A
C696        H704   1.085       .  S
C705        C706   1.398       .  A
C705        C710   1.403       .  A
C705        H721   1.084       .  S
C706        C707   1.403       .  A
C706        H722   1.084       .  S
C707        C717   1.402       .  A
C707        C708   1.411       .  A
C708        C714   1.411       .  A
C708        C709   1.413       .  A
C709        C711   1.411       .  A
C709        C710   1.411       .  A
C710        C718   1.402       .  A
C711        C720   1.405       .  A
C711        C712   1.404       .  A
C712        C713   1.400       .  A
C712        H723   1.084       .  S
C713        C714   1.404       .  A
C713        H724   1.084       .  S
C714        C715   1.405       .  A
C715        C716   1.410       .  A
C715        H725   1.085       .  S
C716        C717   1.409       .  A
C717        H726   1.085       .  S
C718        C719   1.409       .  A
C718        H727   1.085       .  S
C719        C720   1.410       .  A
C720        H728   1.085       .  S
C729        C730   1.401       .  A
C729        C734   1.405       .  A
C729        H745   1.085       .  S
C730        C731   1.405       .  A
C730        H746   1.083       .  S
C731        C741   1.406       .  A
C731        C732   1.412       .  A
C732        C738   1.411       .  A
C732        C733   1.412       .  A
C733        C735   1.411       .  A
C733        C734   1.412       .  A
C734        C742   1.406       .  A
C735        C744   1.399       .  A
C735        C736   1.403       .  A
C736        C737   1.396       .  A
C736        H747   1.083       .  S
C737        C738   1.403       .  A
C737        H748   1.085       .  S
C738        C739   1.400       .  A
C739        C740   1.407       .  A
C739        H749   1.085       .  S
C740        C741   1.410       .  A
C741        H750   1.084       .  S
C742        C743   1.410       .  A
C742        H751   1.085       .  S
C743        C744   1.406       .  A
C744        H752   1.084       .  S
C753        C754   1.396       .  A
C753        C758   1.402       .  A
C753        H769   1.083       .  S
C754        C755   1.402       .  A
C754        H770   1.083       .  S
C755        C765   1.400       .  A
C755        C756   1.411       .  A
C756        C762   1.411       .  A
C756        C757   1.410       .  A
C757        C759   1.411       .  A
C757        C758   1.411       .  A
C758        C766   1.399       .  A
C759        C768   1.403       .  A
C759        C760   1.404       .  A
C760        C761   1.400       .  A
C760        H771   1.083       .  S
C761        C762   1.404       .  A
C761        H772   1.083       .  S
C762        C763   1.403       .  A
C763        C764   1.409       .  A
C763        H773   1.084       .  S
C764        C765   1.407       .  A
C765        H774   1.085       .  S
C766        C767   1.406       .  A
C766        H775   1.085       .  S
C767        C768   1.409       .  A
C768        H776   1.084       .  S
C777        C778   1.399       .  A
C777        C782   1.403       .  A
C777        H793   1.084       .  S
C778        C779   1.404       .  A
C778        H794   1.083       .  S
C779        C789   1.404       .  A
C779        C780   1.411       .  A
C780        C786   1.411       .  A
C780        C781   1.412       .  A
C781        C783   1.411       .  A
C781        C782   1.411       .  A
C782        C790   1.404       .  A
C783        C792   1.401       .  A
C783        C784   1.403       .  A
C784        C785   1.398       .  A
C784        H795   1.084       .  S
C785        C786   1.403       .  A
C785        H796   1.084       .  S
C786        C787   1.402       .  A
C787        C788   1.408       .  A
C787        H797   1.085       .  S
C788        C789   1.408       .  A
C789        H798   1.084       .  S
C790        C791   1.408       .  A
C790        H799   1.085       .  S
C791        C792   1.408       .  A
C792        H800   1.085       .  S
