geometry optimzed in LAMMPS
_audit_creation_date              2020-11-30 
_audit_creation_method            'lammps2cif' 
_symmetry_space_group_name_H-M    'P1' 
_symmetry_Int_Tables_number       1 
_symmetry_cell_setting            triclinic 
loop_ 
_symmetry_equiv_pos_as_xyz 
  x,y,z 
_cell_length_a                    36.18215605 
_cell_length_b                    36.21797037543581 
_cell_length_c                    30.902853419479865 
_cell_angle_alpha                 90.12033965434458 
_cell_angle_beta                  90.50698279851943 
_cell_angle_gamma                 95.6783282281889 
loop_ 
_atom_site_label 
_atom_site_type_symbol 
_atom_site_fract_x 
_atom_site_fract_y 
_atom_site_fract_z 
_atom_site_charge 
O1          O  0.99610035  0.39253285  0.43185515    -0.75500
O2          O  0.00162571  0.43765998  0.38011739    -0.54400
C3          C  0.49782553  0.40316589  0.39196297     0.78200
O4          O  0.39404882  0.49009132  0.07045303    -0.60100
O5          O  0.43759080  0.49109281  0.12457196    -0.53100
C6          C  0.40399016  0.49139539  0.11057637     0.70200
O7          O  0.39810033  0.98202475  0.42542303    -0.74700
O8          O  0.44536302  0.99154267  0.37683540    -0.55200
C9          C  0.41111918  0.48698620  0.38661580     0.76200
O10         O  0.50577124  0.39307661  0.07659339    -0.59800
O11         O  0.49769657  0.43739042  0.12748750    -0.52900
C12         C  0.50238609  0.40402025  0.11584968     0.72800
Zr13       Zr  0.00314501  0.41875851  0.50430587     2.54700
O14         O  0.45904704  0.36314446  0.50715683    -0.80400
O15         O  0.05643726  0.38327028  0.00035118    -0.93800
Zr16       Zr  0.42174687  0.98361342  0.49974647     2.64700
O17         O  0.38344871  0.42491214  0.50123752    -0.98800
O18         O  0.36722784  0.01795715  0.99338300    -0.80800
O19         O  0.46352347  0.45072864  0.45922196    -0.84200
O20         O  0.46025930  0.45031131  0.04465312    -2.18900
O21         O  0.10119776  0.50970007  0.08201147    -0.67600
O22         O  0.05400973  0.50233378  0.13071977    -0.52100
C23         C  0.08824811  0.00659591  0.12147833     0.71200
O24         O  0.99624483  0.09706953  0.42926749    -0.60500
O25         O  0.00158035  0.05202923  0.37852916    -0.52400
C26         C  0.99825855  0.08570015  0.38984308     0.73000
O27         O  0.49508864  0.09802297  0.07552662    -0.71900
O28         O  0.49463586  0.05289938  0.12724016    -0.50500
C29         C  0.99513948  0.08717438  0.11481612     0.74400
O30         O  0.10648007  0.00996812  0.43767633    -0.67200
O31         O  0.06242776  0.00209954  0.38401132    -0.54400
C32         C  0.09628895  0.00734082  0.39775779     0.72800
Zr33       Zr  0.07716856  0.50664393  0.00789874     2.77500
O34         O  0.12134699  0.06116893  0.51045764    -0.97900
O35         O  0.12655459  0.46565099  0.01034616    -0.78800
Zr36       Zr  0.49619622  0.07182276  0.00289826     2.70100
O37         O  0.04329201  0.12569951  0.00423405    -0.80000
O38         O  0.44373430  0.10931836  0.50169575    -0.99100
Zr39       Zr  0.00234992  0.99530626  0.41988312     2.21500
Zr40       Zr  0.49696933  0.49518516  0.08764884     2.11100
O41         O  0.03623698  0.03939146  0.04762935    -2.47800
O42         O  0.03902027  0.03987731  0.46312274    -0.79800
O43         O  0.03944205  0.46207211  0.04828030    -0.72000
O44         O  0.45962067  0.02822425  0.45970268    -2.33000
O45         O  0.04238885  0.46188879  0.46383312    -2.29200
O46         O  0.45719070  0.02860268  0.04346385    -0.73800
H47         H  0.44501871  0.43329016  0.06270057     0.78200
H48         H  0.44419217  0.04137849  0.44067853     0.79300
H49         H  0.05050994  0.05654918  0.06677702     0.81600
H50         H  0.05865481  0.44872516  0.44615300     0.79200
H51         H  0.37741383  0.04427812  0.50206705     0.42200
H52         H  0.42788937  0.10005086  0.02458514     0.41200
H53         H  0.06576950  0.11640834  0.49557829     0.40800
H54         H  0.11386952  0.07536872  0.03490431     0.38800
H55         H  0.11902395  0.44594391  0.98887492     0.41900
H56         H  0.06161791  0.38034789  0.46966665     0.36700
H57         H  0.43508310  0.37245753  0.51460084     0.42800
H58         H  0.35865279  0.43068241  0.99386739     0.39200
H59         H  0.14536949  0.05072596  0.02231951     0.44100
H60         H  0.04722383  0.35793308  0.51046804     0.42900
H61         H  0.38695390  0.41361196  0.47254107     0.43000
H62         H  0.45344230  0.13374324  0.00619665     0.43400
C63         C  0.48753102  0.27808483  0.27575829     0.02100
C64         C  0.49071214  0.27810547  0.23013411     0.02000
C65         C  0.49247426  0.24437399  0.20838100    -0.18500
C66         C  0.49227116  0.21072932  0.23081430     0.02100
C67         C  0.48902933  0.21049558  0.27628893     0.02000
C68         C  0.48721980  0.24426154  0.29815792    -0.18500
H69         H  0.48619253  0.24426615  0.33321136     0.04100
H70         H  0.49450444  0.24436156  0.17337920     0.04100
C71         C  0.28593645  0.50411289  0.27505898     0.02100
C72         C  0.28376380  0.50761561  0.22944906     0.02000
C73         C  0.24884220  0.51060538  0.20987768    -0.18500
C74         C  0.21630678  0.51111504  0.23441184     0.02100
C75         C  0.21880753  0.50727896  0.27981569     0.02000
C76         C  0.25339609  0.50402420  0.29946789    -0.18500
H77         H  0.25496256  0.50118812  0.33436005     0.04100
H78         H  0.24681814  0.51189544  0.17490594     0.04100
C79         C  0.11690698  0.51143771  0.15612198    -0.06300
C80         C  0.14403137  0.04060249  0.15497725    -0.17500
C81         C  0.17481398  0.04301402  0.18299504     0.10900
C82         C  0.18026317  0.51419769  0.21123738    -0.06300
C83         C  0.15153366  0.48522890  0.21436923    -0.17500
C84         C  0.11944682  0.48431975  0.18847726     0.10900
S85         S  0.20654859  0.08456180  0.18068516    -0.32500
S86         S  0.08429895  0.44617199  0.19573512    -0.32500
H87         H  0.05564250  0.46921498  0.20153376     0.28900
H88         H  0.21948857  0.08273506  0.22360722     0.28900
H89         H  0.14167966  0.06232586  0.13131885     0.19500
H90         H  0.15454152  0.46226476  0.23580190     0.19500
C91         C  0.12614004  0.00867615  0.36572764    -0.06300
C92         C  0.13717014  0.47517786  0.35121425    -0.17500
C93         C  0.16713412  0.47354045  0.32333195     0.10900
C94         C  0.18602268  0.50693240  0.30798333    -0.06300
C95         C  0.17486030  0.04072781  0.32233452    -0.17500
C96         C  0.14604789  0.04213628  0.35210021     0.10900
S97         S  0.18041631  0.42788069  0.31073837    -0.32500
S98         S  0.13875746  0.08718939  0.37374831    -0.32500
H99         H  0.10535235  0.07740773  0.39547491     0.28900
H100        H  0.20547926  0.43745524  0.27729484     0.28900
H101        H  0.12308175  0.44958742  0.36330752     0.19500
H102        H  0.18999732  0.06635329  0.31159486     0.19500
C103        C  0.37437896  0.49511464  0.14237537    -0.06300
C104        C  0.35339715  0.02650377  0.13886277    -0.17500
C105        C  0.32530760  0.03212280  0.16822377     0.10900
C106        C  0.31665015  0.50553992  0.20109563    -0.06300
C107        C  0.33688343  0.47443712  0.20421056    -0.17500
C108        C  0.36580119  0.46922252  0.17570975     0.10900
S109        S  0.30296029  0.07419439  0.16210136    -0.32500
S110        S  0.38913886  0.42798443  0.18232523    -0.32500
H111        H  0.39661046  0.42311936  0.13822055     0.28900
H112        H  0.29324549  0.07750389  0.20571833     0.28900
H113        H  0.35980496  0.04675369  0.11354378     0.19500
H114        H  0.32930275  0.45327909  0.22811388     0.19500
C115        C  0.32105217  0.49886076  0.29872032    -0.06300
C116        C  0.32321328  0.46521419  0.32068240    -0.17500
C117        C  0.35374205  0.45948899  0.34703690     0.10900
C118        C  0.38310299  0.48792698  0.35173899    -0.06300
C119        C  0.38171421  0.02003815  0.32806424    -0.17500
C120        C  0.35069833  0.02629763  0.30254052     0.10900
S121        S  0.35328625  0.41565547  0.37472200    -0.32500
S122        S  0.34968952  0.07175364  0.27925662    -0.32500
H123        H  0.31133767  0.07347241  0.28449664     0.28900
H124        H  0.39211917  0.41532519  0.37672859     0.28900
H125        H  0.30045882  0.44347377  0.31794749     0.19500
H126        H  0.40381248  0.04227842  0.33234039     0.19500
C127        C  0.49549894  0.17649063  0.20544298    -0.06300
C128        C  0.46666085  0.14759591  0.20686141    -0.17500
C129        C  0.46631636  0.11700948  0.17907975     0.10900
C130        C  0.49492877  0.11573899  0.14847667    -0.06300
C131        C  0.02480329  0.14464707  0.14739477    -0.17500
C132        C  0.02584122  0.17462349  0.17593368     0.10900
S133        S  0.42796572  0.08153999  0.18318530    -0.32500
S134        S  0.06602935  0.20836737  0.17423426    -0.32500
H135        H  0.06526528  0.21830041  0.21822481     0.28900
H136        H  0.42566040  0.07331361  0.13874655     0.28900
H137        H  0.44363439  0.14949195  0.22867773     0.19600
H138        H  0.04718291  0.14331718  0.12451117     0.19500
C139        C  0.48895614  0.17580062  0.30200599    -0.06300
C140        C  0.01943183  0.15410066  0.29813727    -0.17500
C141        C  0.02143543  0.12240729  0.32363096     0.10900
C142        C  0.99444102  0.11363305  0.35571530    -0.06300
C143        C  0.46325278  0.13454524  0.35843310    -0.17500
C144        C  0.45970224  0.16423451  0.33042290     0.10900
S145        S  0.05961393  0.09529662  0.31469326    -0.32500
S146        S  0.41674749  0.18544939  0.33183433    -0.32500
H147        H  0.41714689  0.19610166  0.28809014     0.28900
H148        H  0.03703804  0.06159103  0.31048945     0.28900
H149        H  0.04166891  0.16215999  0.27578346     0.19500
H150        H  0.44147597  0.12705799  0.38160584     0.19500
C151        C  0.49412075  0.31259188  0.20390226    -0.06300
C152        C  0.02756719  0.32244024  0.18161445    -0.17500
C153        C  0.03137224  0.35313222  0.15399402     0.10900
C154        C  0.50247411  0.37533820  0.14949758    -0.06300
C155        C  0.47009725  0.36732325  0.17359585    -0.17500
C156        C  0.46524827  0.33594205  0.20000571     0.10900
S157        S  0.07431149  0.36158016  0.12459418    -0.32500
S158        S  0.42062601  0.32586197  0.22496124    -0.32500
H159        H  0.41965561  0.28716020  0.22026280     0.28900
H160        H  0.07195950  0.39933622  0.11584207     0.28900
H161        H  0.05017538  0.30503163  0.18440919     0.19500
H162        H  0.44739063  0.38422004  0.16942537     0.19500
C163        C  0.48682625  0.31276366  0.30141518    -0.06300
C164        C  0.01718499  0.34069002  0.29870127    -0.17500
C165        C  0.02046992  0.37146188  0.32637701     0.10900
C166        C  0.49387202  0.37398633  0.35856377    -0.06300
C167        C  0.46369802  0.34677760  0.36164857    -0.17500
C168        C  0.45942823  0.31672299  0.33310112     0.10900
S169        S  0.06049934  0.40464627  0.32034385    -0.32500
S170        S  0.41825396  0.28477228  0.33925814    -0.32500
H171        H  0.41729104  0.27025725  0.29709196     0.28900
H172        H  0.06671119  0.40957730  0.36505519     0.28900
H173        H  0.03888774  0.33776326  0.27538643     0.19500
H174        H  0.44314406  0.34904094  0.38659640     0.19500
O175        O  0.99535840  0.39217098  0.93201940    -0.75500
O176        O  0.00079765  0.43731703  0.88028725    -0.54400
C177        C  0.49745631  0.40330529  0.89196207     0.78200
O178        O  0.39421000  0.49045320  0.57036939    -0.60100
O179        O  0.43777018  0.49094684  0.62440699    -0.53100
C180        C  0.40417833  0.49151935  0.61047847     0.70200
O181        O  0.39795915  0.98224318  0.92554819    -0.74700
O182        O  0.44520777  0.99179349  0.87694105    -0.55200
C183        C  0.41087363  0.48664486  0.88667717     0.76200
O184        O  0.50510694  0.39250781  0.57628637    -0.59800
O185        O  0.49746080  0.43695725  0.62715684    -0.52900
C186        C  0.50177871  0.40349295  0.61553687     0.72800
Zr187      Zr  0.00283353  0.41884909  0.00415759     2.54700
O188        O  0.45805701  0.36373969  0.00754073    -0.80400
O189        O  0.05673563  0.38314707  0.50092067    -0.93800
Zr190      Zr  0.42171557  0.98390960  0.99990541     2.64700
O191        O  0.38402213  0.42440820  0.00092714    -0.98800
O192        O  0.36777043  0.01852026  0.49447597    -0.80800
O193        O  0.46338194  0.45076729  0.95918744    -0.84200
O194        O  0.46043722  0.45015227  0.54438652    -2.18900
O195        O  0.10135161  0.51009094  0.58226206    -0.67600
O196        O  0.05422447  0.50245154  0.63104299    -0.52100
C197        C  0.08816799  0.00711547  0.62123936     0.71200
O198        O  0.99718431  0.09720222  0.92948503    -0.60500
O199        O  0.00220426  0.05213631  0.87873829    -0.52400
C200        C  0.99913465  0.08584092  0.89008704     0.73000
O201        O  0.49474255  0.09763295  0.57588607    -0.71900
O202        O  0.49335370  0.05240403  0.62750956    -0.50500
C203        C  0.99431716  0.08672110  0.61519420     0.74400
O204        O  0.10670929  0.00973332  0.93760600    -0.67200
O205        O  0.06253382  0.00179729  0.88405210    -0.54400
C206        C  0.09641821  0.00702775  0.89769334     0.72800
Zr207      Zr  0.07744236  0.50647961  0.50813185     2.77500
O208        O  0.12230580  0.05999473  0.01109364    -0.97900
O209        O  0.12568914  0.46419963  0.51035306    -0.78800
Zr210      Zr  0.49598398  0.07179157  0.50320203     2.70100
O211        O  0.04239142  0.12607285  0.50471749    -0.80000
O212        O  0.44306367  0.10808973  0.99916510    -0.99100
Zr213      Zr  0.00248183  0.99524419  0.91987767     2.21500
Zr214      Zr  0.49717358  0.49492160  0.58747273     2.11100
O215        O  0.03587488  0.03972299  0.54766456    -2.47800
O216        O  0.03942568  0.03950440  0.96315025    -0.79800
O217        O  0.03968297  0.46198043  0.54854736    -0.72000
O218        O  0.45970393  0.02823367  0.95967412    -2.33000
O219        O  0.04209864  0.46195036  0.96368403    -2.29200
O220        O  0.45699819  0.02831278  0.54341768    -0.73800
H221        H  0.44516928  0.43305559  0.56232230     0.78200
H222        H  0.44432620  0.04141959  0.94062492     0.79300
H223        H  0.05008473  0.05693024  0.56681471     0.81600
H224        H  0.05828480  0.44873579  0.94596497     0.79200
H225        H  0.37541324  0.04292022  0.00512778     0.42200
H226        H  0.42798407  0.10005385  0.52618053     0.41200
H227        H  0.06456389  0.11759877  0.98802119     0.40800
H228        H  0.11583156  0.07415677  0.53751631     0.38800
H229        H  0.11531153  0.44338170  0.52870184     0.41900
H230        H  0.06118312  0.38050653  0.96906110     0.36700
H231        H  0.43854129  0.37063417  0.02741141     0.42800
H232        H  0.35770992  0.43196094  0.50033496     0.39200
H233        H  0.14563317  0.05159209  0.51609034     0.44100
H234        H  0.04697503  0.35804371  0.00990468     0.42900
H235        H  0.39165778  0.41103592  0.97500856     0.43000
H236        H  0.45444056  0.13433255  0.51095109     0.43400
C237        C  0.48778767  0.27787814  0.77627522     0.02100
C238        C  0.49055693  0.27811656  0.73062705     0.02000
C239        C  0.49197057  0.24450240  0.70855980    -0.18500
C240        C  0.49198614  0.21074663  0.73068830     0.02100
C241        C  0.48914901  0.21026322  0.77620934     0.02000
C242        C  0.48758301  0.24393380  0.79841007    -0.18500
H243        H  0.48674181  0.24376328  0.83347294     0.04100
H244        H  0.49357807  0.24468361  0.67352434     0.04100
C245        C  0.28614116  0.50484258  0.77502213     0.02100
C246        C  0.28406773  0.50813492  0.72938454     0.02000
C247        C  0.24918570  0.51092930  0.70971341    -0.18500
C248        C  0.21661640  0.51141649  0.73415804     0.02100
C249        C  0.21895555  0.50770625  0.77959244     0.02000
C250        C  0.25354414  0.50477096  0.79935923    -0.18500
H251        H  0.25504463  0.50201566  0.83426465     0.04100
H252        H  0.24720908  0.51206711  0.67472749     0.04100
C253        C  0.11711079  0.51174756  0.65627639    -0.06300
C254        C  0.14446276  0.04050658  0.65435619    -0.17500
C255        C  0.17531285  0.04250090  0.68223941     0.10900
C256        C  0.18069208  0.51436205  0.71085823    -0.06300
C257        C  0.15210406  0.48527992  0.71396532    -0.17500
C258        C  0.11987666  0.48446879  0.68838384     0.10900
S259        S  0.20754274  0.08368419  0.67990930    -0.32500
S260        S  0.08465448  0.44646638  0.69601136    -0.32500
H261        H  0.05618068  0.46966664  0.70217081     0.28900
H262        H  0.22003997  0.08193799  0.72302499     0.28900
H263        H  0.14233943  0.06227413  0.63069799     0.19500
H264        H  0.15524660  0.46228724  0.73534212     0.19500
C265        C  0.12611367  0.00824080  0.86545124    -0.06300
C266        C  0.13746367  0.47484158  0.85111070    -0.17500
C267        C  0.16752618  0.47348746  0.82324252     0.10900
C268        C  0.18600274  0.50701548  0.80764687    -0.06300
C269        C  0.17454275  0.04011136  0.82146902    -0.17500
C270        C  0.14587734  0.04163734  0.85143904     0.10900
S271        S  0.18146863  0.42802731  0.81094720    -0.32500
S272        S  0.13867130  0.08673281  0.87302015    -0.32500
H273        H  0.10513101  0.07705627  0.89453629     0.28900
H274        H  0.20645268  0.43779916  0.77748458     0.28900
H275        H  0.12365224  0.44914624  0.86331247     0.19500
H276        H  0.18965197  0.06569321  0.81056038     0.19500
C277        C  0.37463671  0.49533516  0.64233941    -0.06300
C278        C  0.35352072  0.02535089  0.63883061    -0.17500
C279        C  0.32549565  0.03109434  0.66818765     0.10900
C280        C  0.31697686  0.50597488  0.70107932    -0.06300
C281        C  0.33716521  0.47484722  0.70427768    -0.17500
C282        C  0.36599969  0.46948212  0.67571166     0.10900
S283        S  0.30347002  0.07335255  0.66212371    -0.32500
S284        S  0.38910857  0.42809395  0.68230334    -0.32500
H285        H  0.39692705  0.42338040  0.63826772     0.28900
H286        H  0.29311501  0.07639662  0.70554615     0.28900
H287        H  0.35992818  0.04552384  0.61342827     0.19500
H288        H  0.32956647  0.45375169  0.72824886     0.19500
C289        C  0.32111444  0.49931975  0.79875148    -0.06300
C290        C  0.32282765  0.46567856  0.82085911    -0.17500
C291        C  0.35327407  0.45958630  0.84713777     0.10900
C292        C  0.38290332  0.48774580  0.85180400    -0.06300
C293        C  0.38126018  0.02028797  0.82818678    -0.17500
C294        C  0.35027639  0.02611971  0.80237023     0.10900
S295        S  0.35247020  0.41554400  0.87443983    -0.32500
S296        S  0.34903517  0.07126742  0.77834467    -0.32500
H297        H  0.31069688  0.07290060  0.78385128     0.28900
H298        H  0.39126417  0.41513978  0.87713510     0.28900
H299        H  0.29984328  0.44417715  0.81816387     0.19500
H300        H  0.40312602  0.04274212  0.83254175     0.19500
C301        C  0.49489785  0.17662769  0.70498772    -0.06300
C302        C  0.46626942  0.14755206  0.70711331    -0.17500
C303        C  0.46574203  0.11680413  0.67956157     0.10900
C304        C  0.49409452  0.11541033  0.64865751    -0.06300
C305        C  0.02432116  0.14388916  0.64786148    -0.17500
C306        C  0.02555220  0.17391829  0.67631378     0.10900
S307        S  0.42731767  0.08147732  0.68409526    -0.32500
S308        S  0.06605560  0.20725954  0.67479133    -0.32500
H309        H  0.06510939  0.21752706  0.71866142     0.28900
H310        H  0.42459630  0.07345296  0.63962469     0.28900
H311        H  0.44349332  0.14944164  0.72928835     0.19600
H312        H  0.04672597  0.14232915  0.62506050     0.19500
C313        C  0.48901142  0.17537166  0.80159676    -0.06300
C314        C  0.02001175  0.15391157  0.79800715    -0.17500
C315        C  0.02210277  0.12230306  0.82361705     0.10900
C316        C  0.99535918  0.11380796  0.85604791    -0.06300
C317        C  0.46363520  0.13429978  0.85833390    -0.17500
C318        C  0.45996666  0.16396908  0.83034063     0.10900
S319        S  0.06002656  0.09494117  0.81435045    -0.32500
S320        S  0.41709446  0.18532566  0.83207115    -0.32500
H321        H  0.41724097  0.19583671  0.78827551     0.28900
H322        H  0.03727522  0.06131397  0.81052928     0.28900
H323        H  0.04209822  0.16184211  0.77541360     0.19500
H324        H  0.44206527  0.12698360  0.88181527     0.19500
C325        C  0.49389153  0.31267778  0.70456518    -0.06300
C326        C  0.02754013  0.32264883  0.68253782    -0.17500
C327        C  0.03130239  0.35330650  0.65486722     0.10900
C328        C  0.50177577  0.37486058  0.64927236    -0.06300
C329        C  0.46936160  0.36677189  0.67330167    -0.17500
C330        C  0.46478572  0.33569992  0.70024915     0.10900
S331        S  0.07455567  0.36216111  0.62617128    -0.32500
S332        S  0.42027298  0.32559777  0.72545503    -0.32500
H333        H  0.41947478  0.28688108  0.72114134     0.28900
H334        H  0.07173252  0.39969433  0.61664229     0.28900
H335        H  0.05040507  0.30562204  0.68590992     0.19500
H336        H  0.44648776  0.38339453  0.66878096     0.19500
C337        C  0.48713436  0.31245646  0.80209111    -0.06300
C338        C  0.01685443  0.34037235  0.79909878    -0.17500
C339        C  0.01993450  0.37113338  0.82678481     0.10900
C340        C  0.49367451  0.37403154  0.85869755    -0.06300
C341        C  0.46353576  0.34678082  0.86176057    -0.17500
C342        C  0.45952883  0.31652803  0.83348674     0.10900
S343        S  0.05988920  0.40446775  0.82090147    -0.32500
S344        S  0.41839308  0.28451831  0.83959031    -0.32500
H345        H  0.41765583  0.26973686  0.79756340     0.28900
H346        H  0.06582992  0.40992548  0.86558405     0.28900
H347        H  0.03870786  0.33746985  0.77597376     0.19500
H348        H  0.44282182  0.34915139  0.88649949     0.19500
O349        O  0.99631381  0.89215234  0.43185242    -0.75500
O350        O  0.00119277  0.93732293  0.38013554    -0.54400
C351        C  0.49671896  0.90336313  0.39200645     0.78200
O352        O  0.39380794  0.99156428  0.07046725    -0.60100
O353        O  0.43729688  0.99159955  0.12452853    -0.53100
C354        C  0.40375097  0.99245814  0.11056962     0.70200
O355        O  0.39854540  0.48282848  0.42536151    -0.74700
O356        O  0.44574290  0.49189594  0.37660824    -0.55200
C357        C  0.41072447  0.98626232  0.38671277     0.76200
O358        O  0.50421740  0.89331365  0.07755819    -0.59800
O359        O  0.49694390  0.93789540  0.12835421    -0.52900
C360        C  0.50122098  0.90441926  0.11683334     0.72800
Zr361      Zr  0.00218807  0.91865252  0.50428322     2.54700
O362        O  0.46018588  0.86199956  0.50722385    -0.80400
O363        O  0.05542501  0.88211912  0.00163957    -0.93800
Zr364      Zr  0.42225251  0.48378141  0.49965049     2.64700
O365        O  0.38225322  0.92516568  0.50106408    -0.98800
O366        O  0.36802555  0.51845517  0.99418028    -0.80800
O367        O  0.46321477  0.95068390  0.45955796    -0.84200
O368        O  0.45980434  0.95040184  0.04490226    -2.18900
O369        O  0.10086359  0.00891287  0.08259963    -0.67600
O370        O  0.05358819  0.00163104  0.13122428    -0.52100
C371        C  0.08866576  0.50742228  0.12089948     0.71200
O372        O  0.99557866  0.59722045  0.42968100    -0.60500
O373        O  0.00229722  0.55253378  0.37891926    -0.52400
C374        C  0.99822750  0.58604009  0.39028401     0.73000
O375        O  0.49463887  0.59807133  0.07517225    -0.71900
O376        O  0.49391867  0.55292715  0.12692607    -0.50500
C377        C  0.99498654  0.58681021  0.11511085     0.74400
O378        O  0.10694455  0.51115089  0.43777776    -0.67200
O379        O  0.06289334  0.50197111  0.38423995    -0.54400
C380        C  0.09673063  0.50785544  0.39791239     0.72800
Zr381      Zr  0.07726208  0.00539570  0.00816573     2.77500
O382        O  0.12106810  0.56218019  0.51058752    -0.97900
O383        O  0.12381315  0.96125895  0.01026959    -0.78800
Zr384      Zr  0.49628146  0.57192042  0.00257760     2.70100
O385        O  0.04218767  0.62608137  0.00354367    -0.80000
O386        O  0.44456163  0.60966129  0.49942884    -0.99100
Zr387      Zr  0.00276258  0.49558986  0.41994490     2.21500
Zr388      Zr  0.49671774  0.99525566  0.08771470     2.11100
O389        O  0.03573650  0.53987748  0.04755171    -2.47800
O390        O  0.03923871  0.54020553  0.46321243    -0.79800
O391        O  0.03885373  0.96152240  0.04853804    -0.72000
O392        O  0.46015931  0.52824872  0.45948721    -2.33000
O393        O  0.04181729  0.96146149  0.46385086    -2.29200
O394        O  0.45755056  0.52839619  0.04311734    -0.73800
H395        H  0.44450337  0.93349129  0.06302187     0.78200
H396        H  0.44476362  0.54146376  0.44049416     0.79300
H397        H  0.04987473  0.55706931  0.06677514     0.81600
H398        H  0.05802449  0.94819976  0.44620265     0.79200
H399        H  0.37774394  0.54294183  0.48339550     0.42200
H400        H  0.42899107  0.60156914  0.02569130     0.41200
H401        H  0.02915306  0.64664330  0.51397358     0.40800
H402        H  0.11157951  0.57709609  0.03659048     0.38800
H403        H  0.11800020  0.94630014  0.03657081     0.41900
H404        H  0.06287995  0.88235604  0.47168216     0.36700
H405        H  0.43539048  0.87084532  0.51097552     0.42800
H406        H  0.35777087  0.93132136  0.99878248     0.39200
H407        H  0.14376373  0.55460575  0.02084986     0.44100
H408        H  0.04344129  0.85559266  0.50617271     0.42900
H409        H  0.38919225  0.91180393  0.47482738     0.43000
H410        H  0.45420401  0.63442641  0.00499402     0.43400
C411        C  0.48723968  0.77789990  0.27629303     0.02100
C412        C  0.49045444  0.77819682  0.23067084     0.02000
C413        C  0.49198047  0.74456912  0.20862219    -0.18500
C414        C  0.49171598  0.71077340  0.23076861     0.02100
C415        C  0.48858857  0.71030785  0.27625495     0.02000
C416        C  0.48683362  0.74394742  0.29842496    -0.18500
H417        H  0.48578338  0.74375714  0.33347764     0.04100
H418        H  0.49386001  0.74476021  0.17360944     0.04100
C419        C  0.28562222  0.00372128  0.27511203     0.02100
C420        C  0.28336083  0.00724168  0.22948280     0.02000
C421        C  0.24839244  0.00999417  0.20996553    -0.18500
C422        C  0.21596754  0.01059082  0.23457630     0.02100
C423        C  0.21857630  0.00713482  0.27997195     0.02000
C424        C  0.25316293  0.00387394  0.29959896    -0.18500
H425        H  0.25477024  0.00112294  0.33449767     0.04100
H426        H  0.24624153  0.01110135  0.17499154     0.04100
C427        C  0.11639221  0.01058731  0.15678031    -0.06300
C428        C  0.14483746  0.54119437  0.15407472    -0.17500
C429        C  0.17558256  0.54354596  0.18219293     0.10900
C430        C  0.17988754  0.01343300  0.21153259    -0.06300
C431        C  0.15141430  0.98421672  0.21456480    -0.17500
C432        C  0.11916782  0.98332900  0.18895672     0.10900
S433        S  0.20785336  0.58467539  0.17928605    -0.32500
S434        S  0.08386531  0.94543971  0.19690955    -0.32500
H435        H  0.05529344  0.96867701  0.20213372     0.28900
H436        H  0.22036563  0.58335212  0.22243227     0.28900
H437        H  0.14274739  0.56275678  0.13014949     0.19500
H438        H  0.15461488  0.96125581  0.23598829     0.19500
C439        C  0.12652613  0.50913152  0.36584703    -0.06300
C440        C  0.13757068  0.97475991  0.35200580    -0.17500
C441        C  0.16758453  0.97328923  0.32415181     0.10900
C442        C  0.18576756  0.00670617  0.30803887    -0.06300
C443        C  0.17593539  0.54097923  0.32332088    -0.17500
C444        C  0.14715838  0.54245423  0.35313179     0.10900
S445        S  0.18197234  0.92789248  0.31250926    -0.32500
S446        S  0.14062946  0.58729888  0.37592035    -0.32500
H447        H  0.10616953  0.57800905  0.39559308     0.28900
H448        H  0.20516582  0.93722797  0.27724188     0.28900
H449        H  0.12395743  0.94912605  0.36462069     0.19500
H450        H  0.19162625  0.56652791  0.31327626     0.19500
C451        C  0.37416316  0.99596892  0.14240586    -0.06300
C452        C  0.35403241  0.52595951  0.13888155    -0.17500
C453        C  0.32624989  0.53211527  0.16845433     0.10900
C454        C  0.31620241  0.00555283  0.20103071    -0.06300
C455        C  0.33679622  0.97473420  0.20410340    -0.17500
C456        C  0.36569847  0.96983492  0.17551594     0.10900
S457        S  0.30526483  0.57505533  0.16306743    -0.32500
S458        S  0.38891541  0.92847208  0.18155120    -0.32500
H459        H  0.39681767  0.92411800  0.13747802     0.28900
H460        H  0.29419538  0.57760737  0.20628532     0.28900
H461        H  0.36068496  0.54614922  0.11356262     0.19500
H462        H  0.32940654  0.95345139  0.22792036     0.19500
C463        C  0.32071429  0.99827734  0.29873781    -0.06300
C464        C  0.32286762  0.96451315  0.32048637    -0.17500
C465        C  0.35337796  0.95865799  0.34686103     0.10900
C466        C  0.38275152  0.98710203  0.35173315    -0.06300
C467        C  0.38207539  0.52078008  0.32791994    -0.17500
C468        C  0.35107599  0.52689554  0.30228608     0.10900
S469        S  0.35282947  0.91464503  0.37423331    -0.32500
S470        S  0.35020756  0.57214949  0.27844633    -0.32500
H471        H  0.31191001  0.57403526  0.28393991     0.28900
H472        H  0.39161981  0.91481341  0.37798986     0.28900
H473        H  0.30010991  0.94279039  0.31758643     0.19500
H474        H  0.40420790  0.54300975  0.33204387     0.19500
C475        C  0.49481258  0.67662250  0.20513024    -0.06300
C476        C  0.46616238  0.64754503  0.20685720    -0.17500
C477        C  0.46572433  0.61700983  0.17896673     0.10900
C478        C  0.49413031  0.61586299  0.14807481    -0.06300
C479        C  0.02480201  0.64394162  0.14820701    -0.17500
C480        C  0.02556910  0.67401777  0.17656109     0.10900
S481        S  0.42738647  0.58156488  0.18310451    -0.32500
S482        S  0.06562140  0.70790783  0.17496677    -0.32500
H483        H  0.06449822  0.71817368  0.21882334     0.28900
H484        H  0.42479142  0.57389018  0.13854433     0.28900
H485        H  0.44329317  0.64929221  0.22893535     0.19600
H486        H  0.04735819  0.64254256  0.12557686     0.19500
C487        C  0.48872371  0.67549824  0.30167419    -0.06300
C488        C  0.01979074  0.65446127  0.29875701    -0.17500
C489        C  0.02183920  0.62293506  0.32453977     0.10900
C490        C  0.99452438  0.61399776  0.35619345    -0.06300
C491        C  0.46332531  0.63381114  0.35781520    -0.17500
C492        C  0.45949492  0.66353801  0.32994919     0.10900
S493        S  0.06040617  0.59611749  0.31664784    -0.32500
S494        S  0.41631119  0.68437450  0.33147017    -0.32500
H495        H  0.41685780  0.69574228  0.28797767     0.28900
H496        H  0.03786023  0.56262229  0.31020679     0.28900
H497        H  0.04217093  0.66264145  0.27663546     0.19500
H498        H  0.44155493  0.62598674  0.38088772     0.19500
C499        C  0.49381542  0.81287313  0.20473344    -0.06300
C500        C  0.02646534  0.82200176  0.18134539    -0.17500
C501        C  0.03050477  0.85288167  0.15404708     0.10900
C502        C  0.50171067  0.87586702  0.15063685    -0.06300
C503        C  0.46984463  0.86813210  0.17569030    -0.17500
C504        C  0.46507970  0.83645704  0.20165467     0.10900
S505        S  0.07325616  0.86092252  0.12424910    -0.32500
S506        S  0.42043049  0.82593115  0.22641374    -0.32500
H507        H  0.41940961  0.78730747  0.22072242     0.28900
H508        H  0.07159695  0.89896864  0.11667454     0.28900
H509        H  0.04893862  0.80441212  0.18396977     0.19500
H510        H  0.44725224  0.88523821  0.17223950     0.19500
C511        C  0.48650255  0.81247631  0.30211640    -0.06300
C512        C  0.01663338  0.84062708  0.29808296    -0.17500
C513        C  0.02014475  0.87132098  0.32593254     0.10900
C514        C  0.49283217  0.87417213  0.35859844    -0.06300
C515        C  0.46245434  0.84712889  0.36126019    -0.17500
C516        C  0.45866303  0.81669474  0.33319663     0.10900
S517        S  0.06003281  0.90467515  0.31949298    -0.32500
S518        S  0.41768555  0.78445733  0.33940661    -0.32500
H519        H  0.41704689  0.76953964  0.29744372     0.28900
H520        H  0.06618898  0.91048135  0.36407555     0.28900
H521        H  0.03817067  0.83776192  0.27454159     0.19500
H522        H  0.44154247  0.84965563  0.38572586     0.19500
O523        O  0.99595108  0.89220343  0.93146622    -0.75500
O524        O  0.00142638  0.93746758  0.87986883    -0.54400
C525        C  0.49656483  0.90322944  0.89212665     0.78200
O526        O  0.39378289  0.98995270  0.57056731    -0.60100
O527        O  0.43738061  0.99116792  0.62461395    -0.53100
C528        C  0.40378562  0.99132397  0.61065918     0.70200
O529        O  0.39830012  0.48230232  0.92540324    -0.74700
O530        O  0.44548265  0.49180578  0.87668342    -0.55200
C531        C  0.41057376  0.98657856  0.88682508     0.76200
O532        O  0.50469143  0.89326480  0.57706940    -0.59800
O533        O  0.49707548  0.93769095  0.62794912    -0.52900
C534        C  0.50155049  0.90430105  0.61634226     0.72800
Zr535      Zr  0.00226196  0.91840127  0.00424586     2.54700
O536        O  0.45810002  0.86299768  0.00885613    -0.80400
O537        O  0.05462457  0.88141624  0.50215003    -0.93800
Zr538      Zr  0.42211069  0.48370997  0.99963488     2.64700
O539        O  0.38345377  0.92478944  0.00325834    -0.98800
O540        O  0.36809429  0.51850033  0.49516710    -0.80800
O541        O  0.46284683  0.95062615  0.95965689    -0.84200
O542        O  0.45996101  0.95003841  0.54456238    -2.18900
O543        O  0.10071392  0.00939452  0.58236377    -0.67600
O544        O  0.05352823  0.00213662  0.63107386    -0.52100
C545        C  0.08884678  0.50772221  0.62115560     0.71200
O546        O  0.99483349  0.59744192  0.92968667    -0.60500
O547        O  0.00178595  0.55275148  0.87899377    -0.52400
C548        C  0.99752344  0.58624221  0.89032781     0.73000
O549        O  0.49568847  0.59787251  0.57552246    -0.71900
O550        O  0.49541662  0.55266553  0.62713010    -0.50500
C551        C  0.99492242  0.58670935  0.61536924     0.74400
O552        O  0.10661137  0.51084690  0.93742078    -0.67200
O553        O  0.06260631  0.50143270  0.88386235    -0.54400
C554        C  0.09644847  0.50732026  0.89754375     0.72800
Zr555      Zr  0.07702972  0.00599385  0.50812278     2.77500
O556        O  0.11976994  0.56307022  0.01147404    -0.97900
O557        O  0.12562129  0.96415006  0.51146823    -0.78800
Zr558      Zr  0.49656179  0.57185973  0.50282580     2.70100
O559        O  0.04270058  0.62594213  0.50356062    -0.80000
O560        O  0.44345634  0.60863385  0.99941617    -0.99100
Zr561      Zr  0.00250270  0.49557071  0.91972069     2.21500
Zr562      Zr  0.49656753  0.99505615  0.58763407     2.11100
O563        O  0.03610526  0.53984580  0.54780296    -2.47800
O564        O  0.03892517  0.54031871  0.96293416    -0.79800
O565        O  0.03892050  0.96175492  0.54842373    -0.72000
O566        O  0.45995140  0.52819395  0.95936853    -2.33000
O567        O  0.04180196  0.96120121  0.96376350    -2.29200
O568        O  0.45766436  0.52839582  0.54330245    -0.73800
H569        H  0.44470448  0.93291193  0.56248075     0.78200
H570        H  0.44450484  0.54135469  0.94037381     0.79300
H571        H  0.05026005  0.55708418  0.56696562     0.81600
H572        H  0.05793592  0.94788073  0.94608461     0.79200
H573        H  0.37552092  0.54212426  0.00944172     0.42200
H574        H  0.42629411  0.59778743  0.52004794     0.41200
H575        H  0.02847394  0.64677342  0.99327702     0.40800
H576        H  0.11309582  0.57675614  0.53536080     0.38800
H577        H  0.11330116  0.94098158  0.52387572     0.41900
H578        H  0.05993061  0.87836108  0.97045944     0.36700
H579        H  0.43541037  0.87177395  0.02130734     0.42800
H580        H  0.35703965  0.93217476  0.49452766     0.39200
H581        H  0.14483477  0.55337589  0.52024268     0.44100
H582        H  0.04579487  0.85727275  0.01226859     0.42900
H583        H  0.38921522  0.91171107  0.97634187     0.43000
H584        H  0.45391526  0.63341529  0.51343174     0.43400
C585        C  0.48760662  0.77801519  0.77591660     0.02100
C586        C  0.49077900  0.77832474  0.73028489     0.02000
C587        C  0.49279942  0.74474862  0.70822058    -0.18500
C588        C  0.49285095  0.71098591  0.73036240     0.02100
C589        C  0.48951043  0.71049218  0.77582196     0.02000
C590        C  0.48746873  0.74407494  0.79800609    -0.18500
H591        H  0.48633988  0.74383161  0.83305310     0.04100
H592        H  0.49481902  0.74496044  0.67321918     0.04100
C593        C  0.28543357  0.00287226  0.77483044     0.02100
C594        C  0.28331783  0.00622413  0.72919794     0.02000
C595        C  0.24843369  0.00892963  0.70949426    -0.18500
C596        C  0.21594813  0.00969024  0.73396003     0.02100
C597        C  0.21835855  0.00629917  0.77937977     0.02000
C598        C  0.25288190  0.00299934  0.79917325    -0.18500
H599        H  0.25439113  0.00034335  0.83408659     0.04100
H600        H  0.24641826  0.00999263  0.67450574     0.04100
C601        C  0.11641321  0.01087761  0.65638657    -0.06300
C602        C  0.14499098  0.54152610  0.65413147    -0.17500
C603        C  0.17590681  0.54378228  0.68194246     0.10900
C604        C  0.18002402  0.01283417  0.71077664    -0.06300
C605        C  0.15124420  0.98393648  0.71388593    -0.17500
C606        C  0.11894496  0.98352275  0.68846949     0.10900
S607        S  0.20828303  0.58481660  0.67861492    -0.32500
S608        S  0.08316350  0.94610381  0.69650212    -0.32500
H609        H  0.05519815  0.96989534  0.70273464     0.28900
H610        H  0.22145059  0.58341394  0.72147795     0.28900
H611        H  0.14276838  0.56313419  0.63029304     0.19500
H612        H  0.15419230  0.96090988  0.73530060     0.19500
C613        C  0.12631897  0.50868638  0.86549147    -0.06300
C614        C  0.13736988  0.97427807  0.85165664    -0.17500
C615        C  0.16720387  0.97268282  0.82356421     0.10900
C616        C  0.18543018  0.00602664  0.80730263    -0.06300
C617        C  0.17534777  0.54093024  0.82266966    -0.17500
C618        C  0.14651120  0.54216244  0.85246076     0.10900
S619        S  0.18139898  0.92721111  0.81194346    -0.32500
S620        S  0.13937471  0.58702730  0.87477615    -0.32500
H621        H  0.10567694  0.57731447  0.89594464     0.28900
H622        H  0.20452459  0.93642541  0.77658680     0.28900
H623        H  0.12383933  0.94870015  0.86449610     0.19500
H624        H  0.19066896  0.56661188  0.81241601     0.19500
C625        C  0.37425199  0.99482152  0.64249418    -0.06300
C626        C  0.35439086  0.52624322  0.63882535    -0.17500
C627        C  0.32655918  0.53243885  0.66830389     0.10900
C628        C  0.31627898  0.00454088  0.70096578    -0.06300
C629        C  0.33697299  0.97381226  0.70431142    -0.17500
C630        C  0.36600400  0.96893196  0.67591226     0.10900
S631        S  0.30537430  0.57522183  0.66249603    -0.32500
S632        S  0.38982652  0.92805624  0.68284401    -0.32500
H633        H  0.39865166  0.92365329  0.63905007     0.28900
H634        H  0.29451021  0.57807082  0.70575080     0.28900
H635        H  0.36110130  0.54640630  0.61349235     0.19500
H636        H  0.32962734  0.95262861  0.72825583     0.19500
C637        C  0.32054730  0.99782086  0.79858023    -0.06300
C638        C  0.32307857  0.96408037  0.82021553    -0.17500
C639        C  0.35368710  0.95852913  0.84655756     0.10900
C640        C  0.38261935  0.98735133  0.85179760    -0.06300
C641        C  0.38233305  0.52055113  0.82778697    -0.17500
C642        C  0.35152002  0.52695315  0.80201516     0.10900
S643        S  0.35393868  0.91432216  0.87330244    -0.32500
S644        S  0.35152955  0.57198436  0.77736626    -0.32500
H645        H  0.31332669  0.57459260  0.78262689     0.28900
H646        H  0.39280132  0.91506778  0.87678259     0.28900
H647        H  0.30059666  0.94208967  0.81714469     0.19500
H648        H  0.40475001  0.54251653  0.83175444     0.19500
C649        C  0.49621777  0.67681966  0.70481551    -0.06300
C650        C  0.46767704  0.64764640  0.70661601    -0.17500
C651        C  0.46752462  0.61688582  0.67914924     0.10900
C652        C  0.49602468  0.61563013  0.64844059    -0.06300
C653        C  0.02493349  0.64380726  0.64823074    -0.17500
C654        C  0.02605183  0.67379514  0.67673711     0.10900
S655        S  0.42945390  0.58116660  0.68367136    -0.32500
S656        S  0.06640219  0.70732289  0.67519784    -0.32500
H657        H  0.06531608  0.71760002  0.71905524     0.28900
H658        H  0.42657543  0.57326537  0.63917449     0.28900
H659        H  0.44468697  0.64943453  0.72850294     0.19600
H660        H  0.04735787  0.64233461  0.62543575     0.19500
C661        C  0.48939846  0.67565218  0.80121266    -0.06300
C662        C  0.01970788  0.65505932  0.79953396    -0.17500
C663        C  0.02150134  0.62341881  0.82508802     0.10900
C664        C  0.99385579  0.61420629  0.85624631    -0.06300
C665        C  0.46326615  0.63381221  0.85683309    -0.17500
C666        C  0.45979110  0.66359063  0.82891150     0.10900
S667        S  0.06003227  0.59662005  0.81721584    -0.32500
S668        S  0.41657720  0.68440408  0.82958824    -0.32500
H669        H  0.41763775  0.69566660  0.78605207     0.28900
H670        H  0.03750155  0.56315792  0.81052997     0.28900
H671        H  0.04232960  0.66339559  0.77779459     0.19500
H672        H  0.44120459  0.62593636  0.87951609     0.19500
C673        C  0.49405359  0.81298797  0.70437920    -0.06300
C674        C  0.02733741  0.82199559  0.68069115    -0.17500
C675        C  0.03124282  0.85291223  0.65344047     0.10900
C676        C  0.50197969  0.87577727  0.65008919    -0.06300
C677        C  0.47001504  0.86801664  0.67492967    -0.17500
C678        C  0.46524614  0.83648337  0.70107815     0.10900
S679        S  0.07399836  0.86125693  0.62368149    -0.32500
S680        S  0.42057189  0.82613557  0.72583933    -0.32500
H681        H  0.41965296  0.78748201  0.72064631     0.28900
H682        H  0.07208516  0.89926506  0.61607992     0.28900
H683        H  0.04989992  0.80451515  0.68332389     0.19500
H684        H  0.44739131  0.88501753  0.67120963     0.19500
C685        C  0.48671959  0.81254592  0.80183893    -0.06300
C686        C  0.01701289  0.84093466  0.79766700    -0.17500
C687        C  0.02033258  0.87160759  0.82555331     0.10900
C688        C  0.49286960  0.87403420  0.85868858    -0.06300
C689        C  0.46265642  0.84682042  0.86132992    -0.17500
C690        C  0.45895363  0.81650320  0.83309166     0.10900
S691        S  0.06020728  0.90500703  0.81943748    -0.32500
S692        S  0.41819102  0.78402068  0.83934389    -0.32500
H693        H  0.41736071  0.76955270  0.79715956     0.28900
H694        H  0.06643160  0.91009872  0.86411631     0.28900
H695        H  0.03872011  0.83805497  0.77434045     0.19500
H696        H  0.44178373  0.84913066  0.88589431     0.19500
O697        O  0.49658373  0.39202739  0.43147354    -0.75500
O698        O  0.50157798  0.43729924  0.37988836    -0.54400
C699        C  0.99761440  0.40356639  0.39231431     0.78200
O700        O  0.89424686  0.49028446  0.07037468    -0.60100
O701        O  0.93772691  0.49098925  0.12452937    -0.53100
C702        C  0.90415622  0.49135084  0.11050820     0.70200
O703        O  0.89800173  0.98226310  0.42538902    -0.74700
O704        O  0.94532904  0.99153837  0.37684043    -0.55200
C705        C  0.91125190  0.48748604  0.38673660     0.76200
O706        O  0.00439683  0.39309106  0.07671273    -0.59800
O707        O  0.99728642  0.43762826  0.12760536    -0.52900
C708        C  0.00137611  0.40413795  0.11598656     0.72800
Zr709      Zr  0.50302273  0.41843977  0.50387561     2.54700
O710        O  0.96074807  0.36226692  0.50724675    -0.80400
O711        O  0.55452231  0.38059113  0.99970122    -0.93800
Zr712      Zr  0.92185116  0.98462837  0.49958353     2.64700
O713        O  0.88576591  0.42389177  0.50125568    -0.98800
O714        O  0.86820302  0.01945319  0.99455075    -0.80800
O715        O  0.96369063  0.45096959  0.45946846    -0.84200
O716        O  0.96016641  0.45061947  0.04429610    -2.18900
O717        O  0.60104017  0.50977159  0.08211501    -0.67600
O718        O  0.55396438  0.50224629  0.13098639    -0.52100
C719        C  0.58814155  0.00680920  0.12132074     0.71200
O720        O  0.49511962  0.09704053  0.42999144    -0.60500
O721        O  0.50166218  0.05239630  0.37915412    -0.52400
C722        C  0.49773025  0.08592307  0.39059001     0.73000
O723        O  0.99615613  0.09833508  0.07529552    -0.71900
O724        O  0.99467461  0.05319300  0.12706665    -0.50500
C725        C  0.49455895  0.08682305  0.11505517     0.74400
O726        O  0.60669324  0.01016642  0.43798829    -0.67200
O727        O  0.56255491  0.00239546  0.38439034    -0.54400
C728        C  0.59645331  0.00758222  0.39806940     0.72800
Zr729      Zr  0.57708951  0.50630914  0.00794236     2.77500
O730        O  0.62050287  0.06187686  0.51073632    -0.97900
O731        O  0.62536252  0.46411999  0.01109308    -0.78800
Zr732      Zr  0.99714328  0.07203990  0.00281169     2.70100
O733        O  0.54075895  0.12672334  0.00352280    -0.80000
O734        O  0.94417634  0.10950847  0.50087837    -0.99100
Zr735      Zr  0.50229975  0.99533226  0.42002661     2.21500
Zr736      Zr  0.99698041  0.49526703  0.08750487     2.11100
O737        O  0.53585504  0.03956223  0.04751250    -2.47800
O738        O  0.53871489  0.03985763  0.46346771    -0.79800
O739        O  0.53923473  0.46187675  0.04821664    -0.72000
O740        O  0.96006670  0.02872770  0.45939939    -2.33000
O741        O  0.54232073  0.46159780  0.46348740    -2.29200
O742        O  0.95774096  0.02902122  0.04326231    -0.73800
H743        H  0.94485382  0.43349035  0.06215027     0.78200
H744        H  0.94472899  0.04190703  0.44028717     0.79300
H745        H  0.55011706  0.05682343  0.06655391     0.81600
H746        H  0.55853380  0.44847805  0.44570108     0.79200
H747        H  0.88013801  0.04721177  0.50376124     0.42200
H748        H  0.93162342  0.10441041  0.02721296     0.41200
H749        H  0.56110475  0.11922428  0.48321652     0.40800
H750        H  0.61591796  0.07442715  0.03464603     0.38800
H751        H  0.61166565  0.43908794  0.01221211     0.41900
H752        H  0.56488241  0.38441126  0.47044938     0.36700
H753        H  0.93991701  0.36881198  0.52537005     0.42800
H754        H  0.85693873  0.43338573  0.99436193     0.39200
H755        H  0.64646401  0.04835769  0.02296342     0.44100
H756        H  0.54427012  0.35541055  0.50162094     0.42900
H757        H  0.88632051  0.41456411  0.47114368     0.43000
H758        H  0.95642142  0.13547952  0.00279175     0.43400
C759        C  0.98839907  0.27817692  0.27652502     0.02100
C760        C  0.99168259  0.27869466  0.23091373     0.02000
C761        C  0.99331867  0.24520555  0.20866308    -0.18500
C762        C  0.99298464  0.21130433  0.23055946     0.02100
C763        C  0.98954932  0.21054008  0.27603487     0.02000
C764        C  0.98787859  0.24409429  0.29841987    -0.18500
H765        H  0.98677101  0.24372067  0.33346607     0.04100
H766        H  0.99524087  0.24557912  0.17365375     0.04100
C767        C  0.78616503  0.50479362  0.27493120     0.02100
C768        C  0.78417204  0.50857377  0.22930861     0.02000
C769        C  0.74931118  0.51162839  0.20963303    -0.18500
C770        C  0.71669519  0.51192211  0.23401889     0.02100
C771        C  0.71900742  0.50780387  0.27940373     0.02000
C772        C  0.75352931  0.50453323  0.29918524    -0.18500
H773        H  0.75495587  0.50148128  0.33405918     0.04100
H774        H  0.74734064  0.51290064  0.17465832     0.04100
C775        C  0.61696690  0.51154158  0.15612445    -0.06300
C776        C  0.64420157  0.04047674  0.15467782    -0.17500
C777        C  0.67500241  0.04268662  0.18266108     0.10900
C778        C  0.68069133  0.51464935  0.21068411    -0.06300
C779        C  0.65230889  0.48535235  0.21373488    -0.17500
C780        C  0.62005840  0.48423930  0.18813980     0.10900
S781        S  0.70669142  0.08429161  0.18083715    -0.32500
S782        S  0.58534304  0.44574347  0.19553067    -0.32500
H783        H  0.55643731  0.46844536  0.20151163     0.28900
H784        H  0.71912803  0.08238680  0.22395966     0.28900
H785        H  0.64186753  0.06232717  0.13117692     0.19500
H786        H  0.65566530  0.46235578  0.23500476     0.19500
C787        C  0.62624016  0.00859173  0.36591113    -0.06300
C788        C  0.63754789  0.47475284  0.35073151    -0.17500
C789        C  0.66755775  0.47348138  0.32279622     0.10900
C790        C  0.68608054  0.50705723  0.30743371    -0.06300
C791        C  0.67433210  0.04006111  0.32110107    -0.17500
C792        C  0.64588260  0.04186645  0.35128381     0.10900
S793        S  0.68146552  0.42806090  0.31021831    -0.32500
S794        S  0.63904475  0.08719634  0.37240962    -0.32500
H795        H  0.60629605  0.07763897  0.39548854     0.28900
H796        H  0.70614454  0.43790308  0.27647091     0.28900
H797        H  0.62369029  0.44901883  0.36275991     0.19500
H798        H  0.68928063  0.06555232  0.30968044     0.19500
C799        C  0.87456527  0.49517842  0.14224359    -0.06300
C800        C  0.85330323  0.02576260  0.13842346    -0.17500
C801        C  0.82546257  0.03169871  0.16799115     0.10900
C802        C  0.81705225  0.50629556  0.20096963    -0.06300
C803        C  0.83741287  0.47531770  0.20461451    -0.17500
C804        C  0.86621952  0.46975566  0.17611764     0.10900
S805        S  0.80359175  0.07405297  0.16195066    -0.32500
S806        S  0.88954686  0.42859471  0.18341893    -0.32500
H807        H  0.89735936  0.42344536  0.13946233     0.28900
H808        H  0.79356611  0.07728189  0.20546509     0.28900
H809        H  0.85957475  0.04580788  0.11285524     0.19500
H810        H  0.82995276  0.45443310  0.22886200     0.19500
C811        C  0.82118514  0.49951593  0.29879420    -0.06300
C812        C  0.82332492  0.46584755  0.32074071    -0.17500
C813        C  0.85388344  0.46006444  0.34703875     0.10900
C814        C  0.88321020  0.48852551  0.35187180    -0.06300
C815        C  0.88151522  0.02015712  0.32821510    -0.17500
C816        C  0.85052555  0.02622006  0.30256462     0.10900
S817        S  0.85362614  0.41604582  0.37428580    -0.32500
S818        S  0.84966950  0.07142998  0.27860020    -0.32500
H819        H  0.81131284  0.07320573  0.28364084     0.28900
H820        H  0.89247924  0.41584721  0.37617214     0.28900
H821        H  0.80059899  0.44408600  0.31790299     0.19500
H822        H  0.90351471  0.04248960  0.33253309     0.19500
C823        C  0.99603523  0.17731830  0.20464604    -0.06300
C824        C  0.96733045  0.14830094  0.20633304    -0.17500
C825        C  0.96693645  0.11766094  0.17864869     0.10900
C826        C  0.99552694  0.11626569  0.14805995    -0.06300
C827        C  0.52447589  0.14382259  0.14837456    -0.17500
C828        C  0.52561421  0.17353883  0.17728638     0.10900
S829        S  0.92834788  0.08243035  0.18259637    -0.32500
S830        S  0.56640321  0.20655160  0.17697860    -0.32500
H831        H  0.56462207  0.21675151  0.22080322     0.28900
H832        H  0.92576298  0.07464566  0.13804898     0.28900
H833        H  0.94438767  0.15015234  0.22828010     0.19600
H834        H  0.54703316  0.14239909  0.12575320     0.19500
C835        C  0.98923289  0.17552491  0.30125653    -0.06300
C836        C  0.51934354  0.15460001  0.29930580    -0.17500
C837        C  0.52130598  0.12296318  0.32488441     0.10900
C838        C  0.49408818  0.11402803  0.35664393    -0.06300
C839        C  0.96362626  0.13416755  0.35765369    -0.17500
C840        C  0.96004257  0.16393775  0.32976982     0.10900
S841        S  0.55954200  0.09590768  0.31628478    -0.32500
S842        S  0.91718860  0.18530738  0.33161136    -0.32500
H843        H  0.91759577  0.19640372  0.28802300     0.28900
H844        H  0.53684947  0.06241921  0.31063294     0.28900
H845        H  0.54165826  0.16268304  0.27706614     0.19500
H846        H  0.94196075  0.12672837  0.38098053     0.19500
C847        C  0.99479781  0.31338681  0.20503648    -0.06300
C848        C  0.52712781  0.32137307  0.18084360    -0.17500
C849        C  0.53163340  0.35236522  0.15372984     0.10900
C850        C  0.00182206  0.37560736  0.14976411    -0.06300
C851        C  0.96973736  0.36743561  0.17433061    -0.17500
C852        C  0.96553733  0.33626338  0.20114661     0.10900
S853        S  0.57506846  0.36068899  0.12530706    -0.32500
S854        S  0.92113513  0.32560694  0.22642400    -0.32500
H855        H  0.92043480  0.28696837  0.22117204     0.28900
H856        H  0.57292212  0.39842651  0.11631236     0.28900
H857        H  0.54948438  0.30366770  0.18376326     0.19500
H858        H  0.94673887  0.38394041  0.17016703     0.19500
C859        C  0.98767835  0.31262708  0.30256087    -0.06300
C860        C  0.51635926  0.34079756  0.29739792    -0.17500
C861        C  0.51998504  0.37141768  0.32533459     0.10900
C862        C  0.99393633  0.37425918  0.35908721    -0.06300
C863        C  0.96390533  0.34689392  0.36218344    -0.17500
C864        C  0.96009300  0.31655119  0.33403830     0.10900
S865        S  0.55988084  0.40472592  0.31891341    -0.32500
S866        S  0.91927639  0.28418864  0.34049379    -0.32500
H867        H  0.91809831  0.26996284  0.29819096     0.28900
H868        H  0.56662594  0.40947401  0.36355473     0.28900
H869        H  0.53788208  0.33791179  0.27384737     0.19500
H870        H  0.94316118  0.34920589  0.38690127     0.19500
O871        O  0.49623586  0.39226990  0.93151651    -0.75500
O872        O  0.50117345  0.43739416  0.87975669    -0.54400
C873        C  0.99676420  0.40320926  0.89248899     0.78200
O874        O  0.89451993  0.49072760  0.57064228    -0.60100
O875        O  0.93799454  0.49126984  0.62479841    -0.53100
C876        C  0.90443458  0.49179112  0.61078942     0.70200
O877        O  0.89835480  0.98297088  0.92535180    -0.74700
O878        O  0.94558310  0.99171754  0.87662443    -0.55200
C879        C  0.91133861  0.48722603  0.88605569     0.76200
O880        O  0.00429914  0.39288972  0.57687319    -0.59800
O881        O  0.99733520  0.43744560  0.62781515    -0.52900
C882        C  0.00121940  0.40390598  0.61615331     0.72800
Zr883      Zr  0.50272154  0.41854246  0.00403080     2.54700
O884        O  0.96019706  0.36266349  0.00864633    -0.80400
O885        O  0.55558060  0.38141359  0.50039944    -0.93800
Zr886      Zr  0.92212041  0.98447674  0.99966532     2.64700
O887        O  0.88210111  0.42611001  0.00061853    -0.98800
O888        O  0.87010765  0.02245014  0.49292426    -0.80800
O889        O  0.96334499  0.45103755  0.95933158    -0.84200
O890        O  0.96054996  0.45048314  0.54473096    -2.18900
O891        O  0.60132962  0.51039555  0.58183392    -0.67600
O892        O  0.55422576  0.50191638  0.63055861    -0.52100
C893        C  0.58802780  0.00731484  0.62146282     0.71200
O894        O  0.49592842  0.09686999  0.92955124    -0.60500
O895        O  0.50166580  0.05194785  0.87884639    -0.52400
C896        C  0.49813449  0.08557693  0.89016650     0.73000
O897        O  0.99516627  0.09792360  0.57567247    -0.71900
O898        O  0.99415621  0.05277777  0.62740885    -0.50500
C899        C  0.49364261  0.08637714  0.61536866     0.74400
O900        O  0.60622103  0.01101466  0.93753239    -0.67200
O901        O  0.56217987  0.00123744  0.88409528    -0.54400
C902        C  0.59601783  0.00743919  0.89767742     0.72800
Zr903      Zr  0.57739308  0.50618298  0.50777225     2.77500
O904        O  0.62401336  0.05848804  0.01119075    -0.97900
O905        O  0.62550886  0.46384357  0.51178168    -0.78800
Zr906      Zr  0.99656555  0.07217237  0.50287164     2.70100
O907        O  0.54199265  0.12556251  0.50396227    -0.80000
O908        O  0.94497091  0.10961629  0.99972094    -0.99100
Zr909      Zr  0.50214808  0.99508192  0.92007427     2.21500
Zr910      Zr  0.99727449  0.49524286  0.58780721     2.11100
O911        O  0.53558495  0.03961161  0.54788579    -2.47800
O912        O  0.53885312  0.03962878  0.96329277    -0.79800
O913        O  0.53954794  0.46170770  0.54808107    -0.72000
O914        O  0.96030272  0.02872486  0.95949574    -2.33000
O915        O  0.54202308  0.46169660  0.96367579    -2.29200
O916        O  0.95748922  0.02894375  0.54335477    -0.73800
H917        H  0.94524909  0.43342835  0.56267881     0.78200
H918        H  0.94501649  0.04200827  0.94043731     0.79300
H919        H  0.54965646  0.05685439  0.56711221     0.81600
H920        H  0.55828990  0.44850649  0.94603837     0.79200
H921        H  0.87816532  0.04543332  0.00053787     0.42200
H922        H  0.92910575  0.10129180  0.52632558     0.41200
H923        H  0.56454192  0.11740407  0.99528390     0.40800
H924        H  0.61244080  0.07648045  0.53543529     0.38800
H925        H  0.61340493  0.43991878  0.50076351     0.41900
H926        H  0.56259365  0.38222353  0.96917142     0.36700
H927        H  0.93552921  0.37083780  0.00170985     0.42800
H928        H  0.85992253  0.42990767  0.50527101     0.39200
H929        H  0.64426433  0.05313439  0.52052162     0.44100
H930        H  0.54300433  0.35479621  0.00287133     0.42900
H931        H  0.88875517  0.41283052  0.97420434     0.43000
H932        H  0.95506148  0.13487785  0.50844844     0.43400
C933        C  0.98831216  0.27790109  0.77663109     0.02100
C934        C  0.99150607  0.27839459  0.73101916     0.02000
C935        C  0.99319204  0.24491364  0.70873939    -0.18500
C936        C  0.99296597  0.21103672  0.73066009     0.02100
C937        C  0.98998197  0.21035886  0.77614862     0.02000
C938        C  0.98818122  0.24388793  0.79855077    -0.18500
H939        H  0.98716176  0.24354693  0.83360460     0.04100
H940        H  0.99501988  0.24527285  0.67372257     0.04100
C941        C  0.78619956  0.50544668  0.77485338     0.02100
C942        C  0.78406833  0.50862292  0.72920416     0.02000
C943        C  0.74916573  0.51145756  0.70951692    -0.18500
C944        C  0.71658685  0.51195245  0.73394828     0.02100
C945        C  0.71898445  0.50822635  0.77936859     0.02000
C946        C  0.75359672  0.50537168  0.79916635    -0.18500
H947        H  0.75509658  0.50261063  0.83406959     0.04100
H948        H  0.74716559  0.51253297  0.67453119     0.04100
C949        C  0.61707792  0.51185090  0.65586194    -0.06300
C950        C  0.64398305  0.04104260  0.65505354    -0.17500
C951        C  0.67486570  0.04311924  0.68293236     0.10900
C952        C  0.68057915  0.51478742  0.71066549    -0.06300
C953        C  0.65198322  0.48570277  0.71386779    -0.17500
C954        C  0.61977626  0.48475986  0.68820791     0.10900
S955        S  0.70695148  0.08440939  0.68052491    -0.32500
S956        S  0.58453855  0.44677513  0.69597776    -0.32500
H957        H  0.55610078  0.47001708  0.70219891     0.28900
H958        H  0.71995420  0.08247133  0.72340782     0.28900
H959        H  0.64170924  0.06288686  0.63152960     0.19500
H960        H  0.65510553  0.46278400  0.73534672     0.19500
C961        C  0.62584739  0.00864059  0.86556644    -0.06300
C962        C  0.63782991  0.47473383  0.85100398    -0.17500
C963        C  0.66782757  0.47363115  0.82296926     0.10900
C964        C  0.68601974  0.50728147  0.80737459    -0.06300
C965        C  0.67496669  0.04041430  0.82245163    -0.17500
C966        C  0.64610044  0.04197754  0.85216420     0.10900
S967        S  0.68211349  0.42835581  0.81039353    -0.32500
S968        S  0.63902192  0.08701652  0.87399913    -0.32500
H969        H  0.60469544  0.07758380  0.89392207     0.28900
H970        H  0.70635325  0.43832358  0.77625900     0.28900
H971        H  0.62418059  0.44893831  0.86314081     0.19500
H972        H  0.69032187  0.06596948  0.81185745     0.19500
C973        C  0.87486033  0.49561838  0.64257764    -0.06300
C974        C  0.85340754  0.02537134  0.63849637    -0.17500
C975        C  0.82531760  0.03122604  0.66773228     0.10900
C976        C  0.81697896  0.50633417  0.70094990    -0.06300
C977        C  0.83731666  0.47532716  0.70451003    -0.17500
C978        C  0.86629068  0.46993897  0.67615700     0.10900
S979        S  0.80313616  0.07332360  0.66105295    -0.32500
S980        S  0.88956009  0.42869281  0.68323566    -0.32500
H981        H  0.89772183  0.42386997  0.63931721     0.28900
H982        H  0.79335808  0.07697957  0.70458598     0.28900
H983        H  0.85984764  0.04545851  0.61300953     0.19500
H984        H  0.82972726  0.45432535  0.72858813     0.19500
C985        C  0.82125082  0.49999020  0.79856489    -0.06300
C986        C  0.82316447  0.46627239  0.82046547    -0.17500
C987        C  0.85376920  0.46014760  0.84650052     0.10900
C988        C  0.88337971  0.48832467  0.85112459    -0.06300
C989        C  0.88161442  0.02037233  0.82781240    -0.17500
C990        C  0.85055066  0.02625575  0.80215083     0.10900
S991        S  0.85316032  0.41608693  0.87372534    -0.32500
S992        S  0.84937300  0.07146268  0.77824745    -0.32500
H993        H  0.81096624  0.07301121  0.78315080     0.28900
H994        H  0.89197548  0.41570332  0.87606219     0.28900
H995        H  0.80021655  0.44473105  0.81780348     0.19500
H996        H  0.90356505  0.04277105  0.83198407     0.19500
C997        C  0.99570811  0.17695946  0.70483370    -0.06300
C998        C  0.96681974  0.14811381  0.70661853    -0.17500
C999        C  0.96626394  0.11734948  0.67908440     0.10900
C1000       C  0.99481911  0.11575803  0.64847801    -0.06300
C1001       C  0.52333458  0.14379224  0.64767376    -0.17500
C1002       C  0.52452297  0.17384488  0.67606088     0.10900
S1003       S  0.92766916  0.08215618  0.68340961    -0.32500
S1004       S  0.56467563  0.20757919  0.67382261    -0.32500
H1005       H  0.56414285  0.21782836  0.71772139     0.28900
H1006       H  0.92527521  0.07375063  0.63901632     0.28900
H1007       H  0.94392990  0.15015850  0.72858987     0.19600
H1008       H  0.54557242  0.14242516  0.62460537     0.19500
C1009       C  0.98987429  0.17539776  0.80133675    -0.06300
C1010       C  0.51910862  0.15382487  0.79827817    -0.17500
C1011       C  0.52114797  0.12217417  0.82384061     0.10900
C1012       C  0.49431263  0.11357495  0.85613432    -0.06300
C1013       C  0.96463365  0.13444764  0.85820317    -0.17500
C1014       C  0.96084270  0.16395460  0.83004719     0.10900
S1015       S  0.55923507  0.09494782  0.81485312    -0.32500
S1016       S  0.91779956  0.18500901  0.83142033    -0.32500
H1017       H  0.91797596  0.19522727  0.78752261     0.28900
H1018       H  0.53649966  0.06136790  0.81028378     0.28900
H1019       H  0.54122800  0.16175619  0.77572737     0.19500
H1020       H  0.94307930  0.12713103  0.88170241     0.19500
C1021       C  0.99447719  0.31307561  0.70518543    -0.06300
C1022       C  0.52690751  0.32154911  0.68157200    -0.17500
C1023       C  0.53118898  0.35226950  0.65404282     0.10900
C1024       C  0.00142039  0.37527761  0.64987007    -0.06300
C1025       C  0.96890886  0.36646741  0.67352607    -0.17500
C1026       C  0.96479693  0.33532165  0.70042093     0.10900
S1027       S  0.57467210  0.36072397  0.62576314    -0.32500
S1028       S  0.92013773  0.32397252  0.72488044    -0.32500
H1029       H  0.92032837  0.28534257  0.72049890     0.28900
H1030       H  0.57238296  0.39843723  0.61675442     0.28900
H1031       H  0.54941827  0.30406112  0.68478618     0.19500
H1032       H  0.94562674  0.38249077  0.66866831     0.19500
C1033       C  0.98731015  0.31232736  0.80263372    -0.06300
C1034       C  0.51668699  0.34047437  0.79815239    -0.17500
C1035       C  0.52004608  0.37129815  0.82578373     0.10900
C1036       C  0.99317891  0.37391089  0.85924363    -0.06300
C1037       C  0.96311088  0.34653999  0.86205497    -0.17500
C1038       C  0.95947090  0.31622934  0.83381751     0.10900
S1039       S  0.55975927  0.40482319  0.81914577    -0.32500
S1040       S  0.91853456  0.28391828  0.83973938    -0.32500
H1041       H  0.91809474  0.26915867  0.79771494     0.28900
H1042       H  0.56612997  0.41051346  0.86371507     0.28900
H1043       H  0.53830459  0.33752409  0.77473787     0.19500
H1044       H  0.94220710  0.34883467  0.88659035     0.19500
O1045       O  0.49543557  0.89223441  0.43153758    -0.75500
O1046       O  0.50077570  0.93749161  0.37993859    -0.54400
C1047       C  0.99759149  0.90321489  0.39230299     0.78200
O1048       O  0.89393770  0.99089358  0.07031363    -0.60100
O1049       O  0.93740164  0.99140727  0.12443882    -0.53100
C1050       C  0.90383148  0.99187469  0.11044099     0.70200
O1051       O  0.89870625  0.48326702  0.42548933    -0.74700
O1052       O  0.94587583  0.49235476  0.37673147    -0.55200
C1053       C  0.91068316  0.98636531  0.38669641     0.76200
O1054       O  0.00400470  0.89324920  0.07716091    -0.59800
O1055       O  0.99672619  0.93779581  0.12802560    -0.52900
C1056       C  0.00089654  0.90431088  0.11643256     0.72800
Zr1057     Zr  0.50270244  0.91837868  0.50416382     2.54700
O1058       O  0.95821209  0.86342211  0.50882383    -0.80400
O1059       O  0.55408629  0.88040157  0.00165023    -0.93800
Zr1060     Zr  0.92243659  0.48396293  0.49979859     2.64700
O1061       O  0.88128614  0.92689065  0.50152507    -0.98800
O1062       O  0.86836545  0.51956331  0.99401353    -0.80800
O1063       O  0.96289137  0.95104768  0.45947481    -0.84200
O1064       O  0.95998722  0.95067371  0.04453456    -2.18900
O1065       O  0.60062582  0.00922059  0.08241216    -0.67600
O1066       O  0.55351530  0.00175719  0.13119139    -0.52100
C1067       C  0.58859794  0.50742791  0.12104929     0.71200
O1068       O  0.49594248  0.59687315  0.42945687    -0.60500
O1069       O  0.50233481  0.55221290  0.37858439    -0.52400
C1070       C  0.49842892  0.58573281  0.39004421     0.73000
O1071       O  0.99558954  0.59811726  0.07564042    -0.71900
O1072       O  0.99481409  0.55283089  0.12721394    -0.50500
C1073       C  0.49383822  0.58686584  0.11470345     0.74400
O1074       O  0.60701445  0.51015121  0.43745913    -0.67200
O1075       O  0.56289460  0.50149251  0.38393572    -0.54400
C1076       C  0.59677203  0.50705921  0.39758505     0.72800
Zr1077     Zr  0.57694966  0.00555295  0.00807943     2.77500
O1078       O  0.62127337  0.56171743  0.50961477    -0.97900
O1079       O  0.62322055  0.96113796  0.00972638    -0.78800
Zr1080     Zr  0.99625611  0.57222341  0.00291145     2.70100
O1081       O  0.54240572  0.62561436  0.00301688    -0.80000
O1082       O  0.94414855  0.60939763  0.50156616    -0.99100
Zr1083     Zr  0.50270730  0.49528266  0.41967479     2.21500
Zr1084     Zr  0.99681929  0.99534190  0.08768510     2.11100
O1085       O  0.53572340  0.53973811  0.04754373    -2.47800
O1086       O  0.53921729  0.53998731  0.46286509    -0.79800
O1087       O  0.53883243  0.96149656  0.04856529    -0.72000
O1088       O  0.96027448  0.52856623  0.45975212    -2.33000
O1089       O  0.54202070  0.96152150  0.46377294    -2.29200
O1090       O  0.95744297  0.52869865  0.04330361    -0.73800
H1091       H  0.94457585  0.93367382  0.06243614     0.78200
H1092       H  0.94484673  0.54177220  0.44078644     0.79300
H1093       H  0.54980224  0.55702807  0.06671692     0.81600
H1094       H  0.55822613  0.94835417  0.44600519     0.79200
H1095       H  0.87618213  0.54131354  0.48147574     0.42200
H1096       H  0.92822856  0.60004142  0.02670327     0.41200
H1097       H  0.52753995  0.64728381  0.50608215     0.40800
H1098       H  0.61118887  0.57749267  0.03431869     0.38800
H1099       H  0.61318332  0.94174594  0.03018659     0.41900
H1100       H  0.55985562  0.87803090  0.46974801     0.36700
H1101       H  0.93385868  0.87304259  0.51330313     0.42800
H1102       H  0.85779211  0.93249473  0.99580923     0.39200
H1103       H  0.64361440  0.55437209  0.02082620     0.44100
H1104       H  0.54660853  0.85753634  0.51226752     0.42900
H1105       H  0.88494570  0.91492276  0.47324763     0.43000
H1106       H  0.95398326  0.63430794  0.01011242     0.43400
C1107       C  0.98776372  0.77799611  0.27613975     0.02100
C1108       C  0.99050295  0.77829167  0.23048009     0.02000
C1109       C  0.99211004  0.74470336  0.20834517    -0.18500
C1110       C  0.99225768  0.71093338  0.23045618     0.02100
C1111       C  0.98940262  0.71042486  0.27595296     0.02000
C1112       C  0.98768936  0.74403592  0.29820231    -0.18500
H1113       H  0.98685996  0.74379753  0.33326402     0.04100
H1114       H  0.99380417  0.74491714  0.17331647     0.04100
C1115       C  0.78552313  0.00327683  0.27507833     0.02100
C1116       C  0.78350089  0.00707865  0.22945910     0.02000
C1117       C  0.74858926  0.00985739  0.20979244    -0.18500
C1118       C  0.71599519  0.01005419  0.23422064     0.02100
C1119       C  0.71832468  0.00610292  0.27958261     0.02000
C1120       C  0.75287026  0.00288414  0.29935648    -0.18500
H1121       H  0.75432750  0.99993394  0.33423876     0.04100
H1122       H  0.74659674  0.01121455  0.17482261     0.04100
C1123       C  0.61642667  0.01058147  0.15647037    -0.06300
C1124       C  0.64465557  0.54151270  0.15398820    -0.17500
C1125       C  0.67564730  0.54398631  0.18173303     0.10900
C1126       C  0.68000886  0.01296912  0.21102521    -0.06300
C1127       C  0.65147194  0.98380775  0.21397120    -0.17500
C1128       C  0.61919484  0.98314354  0.18843363     0.10900
S1129       S  0.70779071  0.58517913  0.17825887    -0.32500
S1130       S  0.58376788  0.94534174  0.19618664    -0.32500
H1131       H  0.55542770  0.96873166  0.20220128     0.28900
H1132       H  0.72089110  0.58397295  0.22116539     0.28900
H1133       H  0.64222932  0.56310872  0.13018584     0.19500
H1134       H  0.65461550  0.96080167  0.23539732     0.19500
C1135       C  0.62656313  0.50855185  0.36545881    -0.06300
C1136       C  0.63766845  0.97451630  0.35274568    -0.17500
C1137       C  0.66747004  0.97269701  0.32462519     0.10900
C1138       C  0.68539571  0.00588311  0.30755719    -0.06300
C1139       C  0.67558847  0.54093044  0.32278584    -0.17500
C1140       C  0.64683754  0.54206481  0.35269323     0.10900
S1141       S  0.68193502  0.92720519  0.31389380    -0.32500
S1142       S  0.63993355  0.58680061  0.37553701    -0.32500
H1143       H  0.60594718  0.57712600  0.39610705     0.28900
H1144       H  0.70433366  0.93607062  0.27783772     0.28900
H1145       H  0.62417552  0.94904191  0.36594670     0.19500
H1146       H  0.69099786  0.56663120  0.31273888     0.19500
C1147       C  0.87420977  0.99536674  0.14226368    -0.06300
C1148       C  0.85405049  0.52583113  0.13814471    -0.17500
C1149       C  0.82634173  0.53231378  0.16762732     0.10900
C1150       C  0.81647775  0.00539346  0.20112299    -0.06300
C1151       C  0.83731159  0.97476010  0.20458495    -0.17500
C1152       C  0.86620982  0.96974807  0.17602320     0.10900
S1153       S  0.80502081  0.57493666  0.16111780    -0.32500
S1154       S  0.89013364  0.92897200  0.18308875    -0.32500
H1155       H  0.89753855  0.92382057  0.13901876     0.28900
H1156       H  0.79509931  0.57859327  0.20460410     0.28900
H1157       H  0.86054618  0.54566770  0.11241331     0.19500
H1158       H  0.83013423  0.95368207  0.22869636     0.19500
C1159       C  0.82059829  0.99810303  0.29887917    -0.06300
C1160       C  0.82298164  0.96430793  0.32048768    -0.17500
C1161       C  0.85367888  0.95849745  0.34656096     0.10900
C1162       C  0.88277179  0.98716049  0.35168887    -0.06300
C1163       C  0.88214817  0.52143951  0.32816015    -0.17500
C1164       C  0.85117474  0.52755699  0.30246419     0.10900
S1165       S  0.85396737  0.91411582  0.37290173    -0.32500
S1166       S  0.85026903  0.57279818  0.27858036    -0.32500
H1167       H  0.81193852  0.57465903  0.28386559     0.28900
H1168       H  0.89284202  0.91482116  0.37616501     0.28900
H1169       H  0.80039158  0.94242380  0.31745812     0.19500
H1170       H  0.90425156  0.54368404  0.33236525     0.19500
C1171       C  0.99550723  0.67682140  0.20485366    -0.06300
C1172       C  0.96679758  0.64778895  0.20640789    -0.17500
C1173       C  0.96654644  0.61716805  0.17870645     0.10900
C1174       C  0.99540111  0.61570681  0.14850657    -0.06300
C1175       C  0.52346251  0.64417208  0.14760988    -0.17500
C1176       C  0.52462220  0.67392464  0.17646780     0.10900
S1177       S  0.92773075  0.58212695  0.18185173    -0.32500
S1178       S  0.56501052  0.70740776  0.17537106    -0.32500
H1179       H  0.56423612  0.71670602  0.21956012     0.28900
H1180       H  0.92545593  0.57483708  0.13716862     0.28900
H1181       H  0.94368753  0.64970041  0.22809258     0.19600
H1182       H  0.54583263  0.64292551  0.12469734     0.19500
C1183       C  0.98929517  0.67554651  0.30130613    -0.06300
C1184       C  0.51939628  0.65468162  0.29894784    -0.17500
C1185       C  0.52177160  0.62312239  0.32454120     0.10900
C1186       C  0.49450956  0.61376708  0.35612172    -0.06300
C1187       C  0.96346602  0.63422618  0.35757268    -0.17500
C1188       C  0.95987496  0.66378557  0.32938693     0.10900
S1189       S  0.56077323  0.59694092  0.31654455    -0.32500
S1190       S  0.91668061  0.68462473  0.33008630    -0.32500
H1191       H  0.91751852  0.69546223  0.28639743     0.28900
H1192       H  0.53884374  0.56298036  0.31099493     0.28900
H1193       H  0.54169869  0.66311782  0.27682167     0.19500
H1194       H  0.94157052  0.62662038  0.38055725     0.19500
C1195       C  0.99361170  0.81294753  0.20458066    -0.06300
C1196       C  0.52647685  0.82154084  0.18098711    -0.17500
C1197       C  0.53065333  0.85254339  0.15385038     0.10900
C1198       C  0.00121998  0.87571642  0.15017395    -0.06300
C1199       C  0.96904184  0.86750844  0.17456820    -0.17500
C1200       C  0.96447512  0.83599602  0.20082210     0.10900
S1201       S  0.57322094  0.86029798  0.12363516    -0.32500
S1202       S  0.91974332  0.82511846  0.22530526    -0.32500
H1203       H  0.91946303  0.78644790  0.22089279     0.28900
H1204       H  0.57186703  0.89842144  0.11627693     0.28900
H1205       H  0.54870173  0.80361492  0.18315040     0.19500
H1206       H  0.94616788  0.88413803  0.17045449     0.19500
C1207       C  0.98713204  0.81254597  0.30206881    -0.06300
C1208       C  0.51622616  0.84034060  0.29849314    -0.17500
C1209       C  0.51960206  0.87110350  0.32620906     0.10900
C1210       C  0.99386814  0.87395574  0.35898646    -0.06300
C1211       C  0.96378808  0.84664522  0.36209986    -0.17500
C1212       C  0.95972727  0.81644088  0.33376088     0.10900
S1213       S  0.56005306  0.90389408  0.32066648    -0.32500
S1214       S  0.91885923  0.78415775  0.34030880    -0.32500
H1215       H  0.91765701  0.76979483  0.29806928     0.28900
H1216       H  0.56586888  0.90925411  0.36538259     0.28900
H1217       H  0.53805358  0.83720631  0.27539907     0.19500
H1218       H  0.94317580  0.84890022  0.38698336     0.19500
O1219       O  0.49519723  0.89215871  0.93170630    -0.75500
O1220       O  0.50053585  0.93732827  0.87999769    -0.54400
C1221       C  0.99751057  0.90334465  0.89191758     0.78200
O1222       O  0.89377015  0.99052062  0.57037426    -0.60100
O1223       O  0.93731663  0.99090776  0.62444043    -0.53100
C1224       C  0.90372794  0.99136986  0.61048797     0.70200
O1225       O  0.89873835  0.48306914  0.92481149    -0.74700
O1226       O  0.94595574  0.49215321  0.87611213    -0.55200
C1227       C  0.91094438  0.98686736  0.88658045     0.76200
O1228       O  0.00414411  0.89314152  0.57679434    -0.59800
O1229       O  0.99730478  0.93770860  0.62773725    -0.52900
C1230       C  0.00135078  0.90422110  0.61606045     0.72800
Zr1231     Zr  0.50209638  0.91823298  0.00451639     2.54700
O1232       O  0.95876941  0.86280671  0.00877058    -0.80400
O1233       O  0.55595147  0.88224370  0.50096931    -0.93800
Zr1234     Zr  0.92204649  0.48424355  0.99940439     2.64700
O1235       O  0.88313914  0.92576929  0.00214642    -0.98800
O1236       O  0.86715827  0.51690808  0.49385366    -0.80800
O1237       O  0.96303163  0.95089311  0.95940595    -0.84200
O1238       O  0.95977562  0.95079528  0.54446063    -2.18900
O1239       O  0.60065969  0.00953392  0.58261547    -0.67600
O1240       O  0.55335437  0.00232986  0.63117433    -0.52100
C1241       C  0.58883174  0.50767246  0.62070718     0.71200
O1242       O  0.49575765  0.59704475  0.92917177    -0.60500
O1243       O  0.50173959  0.55218634  0.87841053    -0.52400
C1244       C  0.49810959  0.58579404  0.88976980     0.73000
O1245       O  0.99553601  0.59795894  0.57588037    -0.71900
O1246       O  0.99486624  0.55276051  0.62752432    -0.50500
C1247       C  0.49543033  0.58664696  0.61502320     0.74400
O1248       O  0.60682591  0.50979893  0.93760469    -0.67200
O1249       O  0.56277771  0.50164265  0.88392898    -0.54400
C1250       C  0.59665768  0.50692134  0.89767084     0.72800
Zr1251     Zr  0.57698365  0.00611696  0.50833441     2.77500
O1252       O  0.61989206  0.56262279  0.01020395    -0.97900
O1253       O  0.62586792  0.96461433  0.51263449    -0.78800
Zr1254     Zr  0.99663892  0.57217740  0.50310466     2.70100
O1255       O  0.54238010  0.62577048  0.50461760    -0.80000
O1256       O  0.94344775  0.60902865  0.00166889    -0.99100
Zr1257     Zr  0.50250797  0.49530107  0.91958491     2.21500
Zr1258     Zr  0.99672220  0.99531527  0.58762418     2.11100
O1259       O  0.53601036  0.53947861  0.54742768    -2.47800
O1260       O  0.53894360  0.53993303  0.96281589    -0.79800
O1261       O  0.53900556  0.96169707  0.54849040    -0.72000
O1262       O  0.95998053  0.52867290  0.95935704    -2.33000
O1263       O  0.54163831  0.96106470  0.96389165    -2.29200
O1264       O  0.95780878  0.52860926  0.54346304    -0.73800
H1265       H  0.94439599  0.93378526  0.56238348     0.78200
H1266       H  0.94455731  0.54184285  0.94033956     0.79300
H1267       H  0.55018574  0.55672582  0.56655706     0.81600
H1268       H  0.55779803  0.94777756  0.94620361     0.79200
H1269       H  0.87822999  0.54532502  0.00128022     0.42200
H1270       H  0.92641170  0.59728643  0.52263012     0.41200
H1271       H  0.52801147  0.64701239  0.00838429     0.40800
H1272       H  0.61363857  0.57632476  0.53453696     0.38800
H1273       H  0.61774714  0.94405278  0.49249000     0.41900
H1274       H  0.55875372  0.87700988  0.97044503     0.36700
H1275       H  0.93796673  0.86771275  0.98928378     0.42800
H1276       H  0.85588732  0.93475819  0.49971424     0.39200
H1277       H  0.64509111  0.55280042  0.51890433     0.44100
H1278       H  0.54368216  0.85559383  0.01164461     0.42900
H1279       H  0.88996194  0.91223048  0.97599775     0.43000
H1280       H  0.95354886  0.63317722  0.51546995     0.43400
C1281       C  0.98830192  0.77825142  0.77569636     0.02100
C1282       C  0.99153408  0.77834850  0.73009185     0.02000
C1283       C  0.99328235  0.74467915  0.70822473    -0.18500
C1284       C  0.99295813  0.71098973  0.73056765     0.02100
C1285       C  0.98942303  0.71067052  0.77600067     0.02000
C1286       C  0.98772390  0.74437086  0.79799579    -0.18500
H1287       H  0.98648611  0.74426155  0.83303830     0.04100
H1288       H  0.99528729  0.74474420  0.67322154     0.04100
C1289       C  0.78551706  0.00313395  0.77489119     0.02100
C1290       C  0.78329138  0.00680382  0.72926482     0.02000
C1291       C  0.74831990  0.00972601  0.70978807    -0.18500
C1292       C  0.71586020  0.01029239  0.73440483     0.02100
C1293       C  0.71840830  0.00654380  0.77980182     0.02000
C1294       C  0.75300303  0.00308652  0.79937067    -0.18500
H1295       H  0.75460857  0.00023050  0.83425452     0.04100
H1296       H  0.74617405  0.01093897  0.67482199     0.04100
C1297       C  0.61619322  0.01115772  0.65675058    -0.06300
C1298       C  0.64491149  0.54168047  0.65368353    -0.17500
C1299       C  0.67570794  0.54414459  0.68169891     0.10900
C1300       C  0.67980286  0.01339356  0.71134171    -0.06300
C1301       C  0.65120827  0.98426607  0.71419761    -0.17500
C1302       C  0.61896498  0.98363269  0.68858541     0.10900
S1303       S  0.70767725  0.58549803  0.67889733    -0.32500
S1304       S  0.58366581  0.94562279  0.69583255    -0.32500
H1305       H  0.55514887  0.96880739  0.70183137     0.28900
H1306       H  0.72012567  0.58420642  0.72206726     0.28900
H1307       H  0.64267076  0.56324049  0.62978841     0.19500
H1308       H  0.65434297  0.96116274  0.73545039     0.19500
C1309       C  0.62653529  0.50847574  0.86557191    -0.06300
C1310       C  0.63699819  0.97464994  0.85169173    -0.17500
C1311       C  0.66710543  0.97299487  0.82398917     0.10900
C1312       C  0.68558971  0.00631244  0.80795824    -0.06300
C1313       C  0.67515920  0.54107191  0.82244887    -0.17500
C1314       C  0.64650983  0.54207661  0.85250358     0.10900
S1315       S  0.68138716  0.92749956  0.81273905    -0.32500
S1316       S  0.63959773  0.58683742  0.87525212    -0.32500
H1317       H  0.60670517  0.57687012  0.89790142     0.28900
H1318       H  0.70456207  0.93662249  0.77740611     0.28900
H1319       H  0.62319207  0.94908165  0.86423976     0.19500
H1320       H  0.69030777  0.56684345  0.81218581     0.19500
C1321       C  0.87414044  0.99485355  0.64231871    -0.06300
C1322       C  0.85442627  0.52635405  0.63867270    -0.17500
C1323       C  0.82648567  0.53259382  0.66795839     0.10900
C1324       C  0.81615480  0.00490545  0.70080180    -0.06300
C1325       C  0.83679790  0.97411985  0.70422771    -0.17500
C1326       C  0.86575155  0.96900659  0.67576223     0.10900
S1327       S  0.80496821  0.57512198  0.66154395    -0.32500
S1328       S  0.88912140  0.92779692  0.68250372    -0.32500
H1329       H  0.89795140  0.92351302  0.63869499     0.28900
H1330       H  0.79452529  0.57850438  0.70489047     0.28900
H1331       H  0.86105017  0.54635252  0.61314568     0.19500
H1332       H  0.82941549  0.95301360  0.72824829     0.19500
C1333       C  0.82071416  0.99803069  0.79854515    -0.06300
C1334       C  0.82318775  0.96436929  0.82041348    -0.17500
C1335       C  0.85383820  0.95882613  0.84672043     0.10900
C1336       C  0.88293666  0.98753197  0.85159347    -0.06300
C1337       C  0.88263908  0.52119641  0.82725764    -0.17500
C1338       C  0.85163310  0.52767252  0.80180789     0.10900
S1339       S  0.85389452  0.91483285  0.87401086    -0.32500
S1340       S  0.85133725  0.57290188  0.77770721    -0.32500
H1341       H  0.81302373  0.57511221  0.78249451     0.28900
H1342       H  0.89274797  0.91534036  0.87734284     0.28900
H1343       H  0.80061009  0.94245323  0.81759425     0.19500
H1344       H  0.90502480  0.54319348  0.83122557     0.19500
C1345       C  0.99614171  0.67673280  0.70521096    -0.06300
C1346       C  0.96736518  0.64778624  0.70696550    -0.17500
C1347       C  0.96685022  0.61715242  0.67926941     0.10900
C1348       C  0.99544662  0.61566345  0.64871819    -0.06300
C1349       C  0.52531090  0.64402616  0.64788358    -0.17500
C1350       C  0.52623552  0.67401364  0.67645629     0.10900
S1351       S  0.92802155  0.58218724  0.68300652    -0.32500
S1352       S  0.56655430  0.70760720  0.67542881    -0.32500
H1353       H  0.56528030  0.71748988  0.71940584     0.28900
H1354       H  0.92587843  0.57404472  0.63853805     0.28900
H1355       H  0.94436076  0.64978794  0.72877655     0.19600
H1356       H  0.54774844  0.64270721  0.62507673     0.19500
C1357       C  0.98906577  0.67592398  0.80156201    -0.06300
C1358       C  0.52010106  0.65486115  0.79897684    -0.17500
C1359       C  0.52216482  0.62326563  0.82459657     0.10900
C1360       C  0.49449949  0.61381143  0.85570525    -0.06300
C1361       C  0.96266432  0.63429404  0.85723604    -0.17500
C1362       C  0.95927552  0.66392963  0.82904938     0.10900
S1363       S  0.56136346  0.59725388  0.81729934    -0.32500
S1364       S  0.91588129  0.68444521  0.82883918    -0.32500
H1365       H  0.91743655  0.69561220  0.78527666     0.28900
H1366       H  0.53978664  0.56303139  0.81245561     0.28900
H1367       H  0.54267398  0.66335973  0.77723278     0.19500
H1368       H  0.94052677  0.62649824  0.87984875     0.19500
C1369       C  0.99451962  0.81285189  0.70397111    -0.06300
C1370       C  0.52680739  0.82170469  0.68082374    -0.17500
C1371       C  0.53101646  0.85262539  0.65361141     0.10900
C1372       C  0.00184649  0.87562558  0.64968049    -0.06300
C1373       C  0.96965867  0.86723966  0.67396378    -0.17500
C1374       C  0.96523841  0.83571008  0.70013998     0.10900
S1375       S  0.57376185  0.86049710  0.62377019    -0.32500
S1376       S  0.92049677  0.82457076  0.72446090    -0.32500
H1377       H  0.92034489  0.78594718  0.71960019     0.28900
H1378       H  0.57223723  0.89855621  0.61615384     0.28900
H1379       H  0.54909989  0.80387810  0.68321596     0.19500
H1380       H  0.94669553  0.88379606  0.66989498     0.19500
C1381       C  0.98744793  0.81289327  0.80136921    -0.06300
C1382       C  0.51629678  0.84057070  0.79825833    -0.17500
C1383       C  0.51954958  0.87125580  0.82610705     0.10900
C1384       C  0.99385146  0.87421362  0.85840700    -0.06300
C1385       C  0.96361471  0.84704106  0.86105266    -0.17500
C1386       C  0.95971125  0.81688985  0.83262114     0.10900
S1387       S  0.55967828  0.90440002  0.82035989    -0.32500
S1388       S  0.91865005  0.78473129  0.83856541    -0.32500
H1389       H  0.91809019  0.76983803  0.79659898     0.28900
H1390       H  0.56564108  0.90958277  0.86507473     0.28900
H1391       H  0.53808066  0.83766112  0.77504012     0.19500
H1392       H  0.94279746  0.84932465  0.88568780     0.19500
loop_ 
_geom_bond_atom_site_label_1 
_geom_bond_atom_site_label_2 
_geom_bond_distance 
_geom_bond_site_symmetry_2 
_ccdc_geom_bond_type 
O1          Zr13   2.432   1_655  S
O1          C699   1.286       .  A
O2         Zr387   2.427       .  S
O2          C699   1.287   1_455  A
C3          O697   1.286       .  A
C3          O698   1.287       .  A
C3          C166   1.472       .  S
O4         Zr538   2.441   1_554  S
O4            C6   1.287       .  A
O5          Zr40   2.433       .  S
O5            C6   1.288       .  A
C6          C103   1.476       .  S
O7          Zr16   2.442       .  S
O7          C357   1.288       .  A
O8         Zr735   2.437       .  S
O8          C357   1.288       .  A
C9          O355   1.288       .  A
C9          O356   1.288       .  A
C9          C118   1.476       .  S
O10        Zr883   2.432       .  S
O10          C12   1.286       .  A
O11         Zr40   2.433       .  S
O11          C12   1.288       .  A
C12         C154   1.472       .  S
Zr13        O880   2.434       .  S
Zr13         O45   2.371       .  S
Zr13        O715   2.371   1_455  S
Zr13        O890   2.374   1_455  S
Zr13        O217   2.370       .  S
Zr13        O710   2.435   1_455  S
Zr13        O189   2.436       .  S
O14        Zr709   2.434       .  S
O14          H57   0.990       .  S
O15        Zr187   2.436       .  S
O15         H230   0.990   1_554  S
O15         H234   0.990       .  S
Zr16        O526   2.439       .  S
Zr16         O44   2.371   1_565  S
Zr16        O542   2.369       .  S
Zr16        O367   2.366       .  S
Zr16        O220   2.371   1_565  S
Zr16        O365   2.435       .  S
Zr16        O192   2.434   1_565  S
O17        Zr364   2.435       .  S
O17          H61   0.990       .  S
O17         H232   0.990       .  S
O18        Zr190   2.434   1_545  S
O18         H225   0.990   1_556  S
O19        Zr709   2.370       .  S
O19        Zr364   2.367       .  S
O19       Zr1083   2.386       .  S
O20         Zr40   2.388       .  S
O20        Zr883   2.374       .  S
O20        Zr538   2.368   1_554  S
O20          H47   0.967       .  S
O21         Zr33   2.441       .  S
O21         C371   1.288       .  A
O22        Zr736   2.440   1_455  S
O22         C371   1.288       .  A
C23         O369   1.289       .  A
C23         O370   1.288       .  A
C23         C427   1.483       .  S
O24        Zr906   2.449       .  S
O24          C26   1.290       .  A
O25         Zr39   2.424   1_545  S
O25          C26   1.285   1_455  A
C26         C142   1.478       .  S
O27         Zr36   2.437       .  S
O27         C725   1.288       .  A
O28        Zr388   2.425   1_545  S
O28         C725   1.286       .  A
C29         O723   1.287       .  A
C29         O724   1.287       .  A
C29         C826   1.469       .  S
O30        Zr555   2.431       .  S
O30          C32   1.285       .  A
O31         Zr39   2.440   1_545  S
O31          C32   1.289       .  A
C32          C91   1.469       .  S
Zr33        O552   2.431   1_554  S
Zr33         O43   2.373       .  S
Zr33        O389   2.362       .  S
Zr33        O564   2.375   1_554  S
Zr33        O219   2.377   1_554  S
Zr33         O35   2.434       .  S
Zr33        O556   2.437       .  S
O34        Zr555   2.436       .  S
O34         H228   0.990       .  S
O34         H233   0.990       .  S
O35          H55   0.990   1_554  S
Zr36        O894   2.443   1_554  S
Zr36         O46   2.370       .  S
Zr36        O912   2.371   1_554  S
Zr36        O737   2.372       .  S
Zr36        O218   2.360   1_554  S
Zr36        O733   2.433       .  S
Zr36        O212   2.435   1_554  S
O37        Zr732   2.434   1_455  S
O37         H227   0.990   1_554  S
O38        Zr210   2.435       .  S
O38         H226   0.990       .  S
O38         H236   0.990       .  S
Zr39        O350   2.427       .  S
Zr39        O704   2.437   1_455  S
Zr39         O42   2.385   1_565  S
Zr39       O1063   2.386   1_455  S
Zr39        O740   2.385   1_465  S
Zr39        O393   2.389       .  S
Zr40        O718   2.441       .  S
Zr40        O376   2.428       .  S
Zr40       O1085   2.387       .  S
Zr40        O739   2.381       .  S
Zr40        O394   2.385       .  S
O41        Zr381   2.365       .  S
O41        Zr732   2.371   1_455  S
O41       Zr1084   2.388   1_445  S
O41          H49   0.966       .  S
O42        Zr555   2.375       .  S
O42        Zr906   2.371   1_455  S
O43        Zr187   2.369       .  S
O43        Zr736   2.381   1_455  S
O44        Zr210   2.362       .  S
O44        Zr735   2.387   1_545  S
O44          H48   0.966       .  S
O45        Zr207   2.376       .  S
O45        Zr387   2.388       .  S
O45          H50   0.966       .  S
O46        Zr190   2.373   1_544  S
O46        Zr388   2.385   1_545  S
H51         O192   0.990       .  S
H52         O212   0.990   1_554  S
H53         O211   0.990       .  S
H54         O208   0.990       .  S
H56         O189   0.990       .  S
H58         O191   0.990   1_556  S
H59         O208   0.990       .  S
H60         O189   0.990       .  S
H62         O212   0.990   1_554  S
C63         C163   1.486       .  S
C63          C64   1.416       .  A
C63          C68   1.407       .  A
C64         C151   1.486       .  S
C64          C65   1.400       .  A
C65          C66   1.403       .  A
C65          H70   1.085       .  S
C66         C127   1.481       .  S
C66          C67   1.411       .  A
C67         C139   1.488       .  S
C67          C68   1.403       .  A
C68          H69   1.084       .  S
C71         C115   1.489       .  S
C71          C72   1.418       .  A
C71          C76   1.404       .  A
C72         C106   1.492       .  S
C72          C73   1.410       .  A
C73          C74   1.407       .  A
C73          H78   1.084       .  S
C74          C82   1.496       .  S
C74          C75   1.413       .  A
C75          C94   1.477       .  S
C75          C76   1.402       .  A
C76          H77   1.085       .  S
C79         C371   1.483       .  S
C79          C84   1.412       .  A
C79         C428   1.405       .  A
C80          C81   1.400       .  A
C80         C427   1.404       .  A
C80          H89   1.084       .  S
C81         C430   1.414       .  A
C81          S85   1.802       .  S
C82          C83   1.406       .  A
C82         C429   1.415       .  A
C83          C84   1.402       .  A
C83          H90   1.078       .  S
C84          S86   1.799       .  S
S85          H88   1.407       .  S
S86          H87   1.406       .  S
C91          C96   1.414       .  A
C91         C440   1.400   1_545  A
C92          C93   1.397       .  A
C92         C439   1.400       .  A
C92         H101   1.082       .  S
C93          C94   1.414       .  A
C93          S97   1.810       .  S
C94         C443   1.403       .  A
C95          C96   1.401       .  A
C95         C442   1.402       .  A
C95         H102   1.084       .  S
C96          S98   1.806       .  S
S97         H100   1.402       .  S
S98          H99   1.403       .  S
C103        C108   1.410       .  A
C103        C452   1.401       .  A
C104        C105   1.398       .  A
C104        C451   1.401   1_545  A
C104        H113   1.084       .  S
C105        C454   1.418       .  A
C105        S109   1.804       .  S
C106        C107   1.406       .  A
C106        C453   1.417       .  A
C107        C108   1.400       .  A
C107        H114   1.083       .  S
C108        S110   1.798       .  S
S109        H112   1.404       .  S
S110        H111   1.406       .  S
C115        C116   1.405       .  A
C115        C468   1.415       .  A
C116        C117   1.399       .  A
C116        H125   1.084       .  S
C117        C118   1.411       .  A
C117        S121   1.804       .  S
C118        C467   1.404       .  A
C119        C120   1.403       .  A
C119        C466   1.404   1_545  A
C119        H126   1.084       .  S
C120        C463   1.414   1_545  A
C120        S122   1.802       .  S
S121        H124   1.407       .  S
S122        H123   1.406       .  S
C127        C128   1.404       .  A
C127        C828   1.413       .  A
C128        C129   1.399       .  A
C128        H137   1.084       .  S
C129        C130   1.412       .  A
C129        S133   1.801       .  S
C130        C725   1.468       .  S
C130        C827   1.401       .  A
C131        C132   1.395       .  A
C131        C826   1.401   1_455  A
C131        H138   1.084       .  S
C132        C823   1.413   1_455  A
C132        S134   1.806       .  S
S133        H136   1.405       .  S
S134        H135   1.407       .  S
C139        C144   1.413       .  A
C139        C836   1.405       .  A
C140        C141   1.401       .  A
C140        C835   1.405   1_455  A
C140        H149   1.083       .  S
C141        C142   1.412   1_455  A
C141        S145   1.795       .  S
C142        C839   1.402       .  A
C143        C144   1.397       .  A
C143        C838   1.402       .  A
C143        H150   1.084       .  S
C144        S146   1.801       .  S
S145        H148   1.405       .  S
S146        H147   1.406       .  S
C151        C156   1.412       .  A
C151        C848   1.406       .  A
C152        C153   1.400       .  A
C152        C847   1.406   1_455  A
C152        H161   1.084       .  S
C153        C850   1.412       .  A
C153        S157   1.807       .  S
C154        C155   1.400       .  A
C154        C849   1.412       .  A
C155        C156   1.398       .  A
C155        H162   1.079       .  S
C156        S158   1.800       .  S
S157        H160   1.405       .  S
S158        H159   1.406       .  S
C163        C168   1.417       .  A
C163        C860   1.406       .  A
C164        C165   1.398       .  A
C164        C859   1.405   1_455  A
C164        H173   1.083       .  S
C165        C862   1.411   1_455  A
C165        S169   1.800       .  S
C166        C167   1.401       .  A
C166        C861   1.411       .  A
C167        C168   1.395       .  A
C167        H174   1.084       .  S
C168        S170   1.805       .  S
S169        H172   1.406       .  S
S170        H171   1.403       .  S
O175       Zr187   2.430   1_656  S
O175        C873   1.286       .  A
O176       Zr561   2.429       .  S
O176        C873   1.287   1_455  A
C177        O871   1.287       .  A
C177        O872   1.286       .  A
C177        C340   1.471       .  S
O178       Zr364   2.439       .  S
O178        C180   1.287       .  A
O179       Zr214   2.434       .  S
O179        C180   1.288       .  A
C180        C277   1.476       .  S
O181       Zr190   2.445       .  S
O181        C531   1.289       .  A
O182       Zr909   2.437       .  S
O182        C531   1.288       .  A
C183        O529   1.288       .  A
C183        O530   1.288       .  A
C183        C292   1.475       .  S
O184       Zr709   2.432       .  S
O184        C186   1.286       .  A
O185       Zr214   2.434       .  S
O185        C186   1.288       .  A
C186        C328   1.472       .  S
Zr187       O706   2.433       .  S
Zr187       O889   2.371   1_454  S
Zr187       O716   2.372   1_455  S
Zr187       O219   2.371   1_554  S
Zr187       O884   2.434   1_455  S
O188       Zr883   2.436       .  S
O188        H231   0.990       .  S
Zr190       O352   2.438   1_556  S
Zr190       O368   2.368   1_556  S
Zr190       O541   2.366       .  S
Zr190       O218   2.369   1_565  S
Zr190       O539   2.435   1_556  S
O191       Zr538   2.435   1_554  S
O191        H235   0.991   1_554  S
O193       Zr883   2.368   1_556  S
O193       Zr538   2.365       .  S
O193      Zr1257   2.385       .  S
O194       Zr709   2.375       .  S
O194       Zr364   2.369       .  S
O194       Zr214   2.388       .  S
O194        H221   0.967       .  S
O195       Zr207   2.440       .  S
O195        C545   1.288       .  A
O196       Zr910   2.438   1_455  S
O196        C545   1.288       .  A
C197        O543   1.288       .  A
C197        O544   1.288       .  A
C197        C601   1.482       .  S
O198       Zr732   2.444   1_556  S
O198        C200   1.289       .  A
O199       Zr213   2.424   1_545  S
O199        C200   1.285   1_455  A
C200        C316   1.477       .  S
O201       Zr210   2.434       .  S
O201        C899   1.287       .  A
O202       Zr562   2.426   1_545  S
O202        C899   1.286       .  A
C203        O897   1.287       .  A
C203        O898   1.286       .  A
C203       C1000   1.468       .  S
O204       Zr381   2.434   1_556  S
O204        C206   1.286       .  A
O205       Zr213   2.438   1_545  S
O205        C206   1.289       .  A
C206        C265   1.469       .  S
Zr207       O378   2.429       .  S
Zr207       O563   2.363       .  S
Zr207       O390   2.374       .  S
Zr207       O217   2.372       .  S
Zr207       O382   2.436       .  S
Zr207       O209   2.434       .  S
O208       Zr381   2.436       .  S
O209        H229   0.990       .  S
Zr210       O720   2.443       .  S
Zr210       O738   2.370       .  S
Zr210       O911   2.371       .  S
Zr210       O220   2.369       .  S
Zr210       O907   2.434       .  S
O211       Zr906   2.433   1_455  S
Zr213       O524   2.425       .  S
Zr213       O878   2.437   1_455  S
Zr213      O1237   2.386   1_455  S
Zr213       O216   2.383   1_565  S
Zr213       O914   2.386   1_465  S
Zr213       O567   2.388       .  S
Zr214       O892   2.438       .  S
Zr214       O550   2.428       .  S
Zr214      O1259   2.388       .  S
Zr214       O913   2.381       .  S
Zr214       O568   2.386       .  S
O215       Zr555   2.364       .  S
O215       Zr906   2.371   1_455  S
O215      Zr1258   2.389   1_445  S
O215        H223   0.966       .  S
O216       Zr381   2.376   1_556  S
O216       Zr732   2.370   1_456  S
O217       Zr910   2.381   1_455  S
O218       Zr909   2.385   1_545  S
O218        H222   0.965       .  S
O219       Zr561   2.387       .  S
O219        H224   0.965       .  S
O220       Zr562   2.384   1_545  S
C237        C337   1.486       .  S
C237        C238   1.415       .  A
C237        C242   1.408       .  A
C238        C325   1.485       .  S
C238        C239   1.400       .  A
C239        C240   1.402       .  A
C239        H244   1.085       .  S
C240        C301   1.481       .  S
C240        C241   1.411       .  A
C241        C313   1.488       .  S
C241        C242   1.404       .  A
C242        H243   1.084       .  S
C245        C289   1.488       .  S
C245        C246   1.418       .  A
C245        C250   1.404       .  A
C246        C280   1.492       .  S
C246        C247   1.409       .  A
C247        C248   1.407       .  A
C247        H252   1.084       .  S
C248        C256   1.494       .  S
C248        C249   1.413       .  A
C249        C268   1.479       .  S
C249        C250   1.401       .  A
C250        H251   1.085       .  S
C253        C545   1.482       .  S
C253        C602   1.404       .  A
C253        C258   1.412       .  A
C254        C601   1.404       .  A
C254        C255   1.400       .  A
C254        H263   1.084       .  S
C255        C604   1.414       .  A
C255        S259   1.802       .  S
C256        C603   1.415       .  A
C256        C257   1.405       .  A
C257        C258   1.401       .  A
C257        H264   1.078       .  S
C258        S260   1.798       .  S
S259        H262   1.407       .  S
S260        H261   1.406       .  S
C265        C614   1.400   1_545  A
C265        C270   1.414       .  A
C266        C613   1.400       .  A
C266        C267   1.398       .  A
C266        H275   1.082       .  S
C267        C268   1.415       .  A
C267        S271   1.810       .  S
C268        C617   1.403       .  A
C269        C616   1.403       .  A
C269        C270   1.402       .  A
C269        H276   1.084       .  S
C270        S272   1.806       .  S
S271        H274   1.402       .  S
S272        H273   1.403       .  S
C277        C626   1.401       .  A
C277        C282   1.411       .  A
C278        C625   1.400   1_545  A
C278        C279   1.397       .  A
C278        H287   1.084       .  S
C279        C628   1.417       .  A
C279        S283   1.803       .  S
C280        C627   1.417       .  A
C280        C281   1.406       .  A
C281        C282   1.400       .  A
C281        H288   1.083       .  S
C282        S284   1.798       .  S
S283        H286   1.403       .  S
S284        H285   1.406       .  S
C289        C290   1.405       .  A
C289        C642   1.415       .  A
C290        C291   1.398       .  A
C290        H299   1.084       .  S
C291        C292   1.411       .  A
C291        S295   1.804       .  S
C292        C641   1.404       .  A
C293        C640   1.404   1_545  A
C293        C294   1.403       .  A
C293        H300   1.084       .  S
C294        C637   1.414   1_545  A
C294        S296   1.802       .  S
S295        H298   1.407       .  S
S296        H297   1.406       .  S
C301        C302   1.404       .  A
C301       C1002   1.413       .  A
C302        C303   1.399       .  A
C302        H311   1.084       .  S
C303        C304   1.412       .  A
C303        S307   1.800       .  S
C304        C899   1.468       .  S
C304       C1001   1.401       .  A
C305       C1000   1.401   1_455  A
C305        C306   1.394       .  A
C305        H312   1.084       .  S
C306        C997   1.412   1_455  A
C306        S308   1.805       .  S
S307        H310   1.405       .  S
S308        H309   1.407       .  S
C313       C1010   1.405       .  A
C313        C318   1.413       .  A
C314       C1009   1.405   1_455  A
C314        C315   1.401       .  A
C314        H323   1.083       .  S
C315        C316   1.412   1_455  A
C315        S319   1.795       .  S
C316       C1013   1.402       .  A
C317       C1012   1.402       .  A
C317        C318   1.397       .  A
C317        H324   1.084       .  S
C318        S320   1.802       .  S
S319        H322   1.405       .  S
S320        H321   1.407       .  S
C325       C1022   1.405       .  A
C325        C330   1.412       .  A
C326       C1021   1.405   1_455  A
C326        C327   1.400       .  A
C326        H335   1.084       .  S
C327       C1024   1.412       .  A
C327        S331   1.807       .  S
C328       C1023   1.412       .  A
C328        C329   1.400       .  A
C329        C330   1.399       .  A
C329        H336   1.079       .  S
C330        S332   1.800       .  S
S331        H334   1.405       .  S
S332        H333   1.406       .  S
C337       C1034   1.406       .  A
C337        C342   1.416       .  A
C338       C1033   1.405   1_455  A
C338        C339   1.398       .  A
C338        H347   1.083       .  S
C339       C1036   1.410   1_455  A
C339        S343   1.800       .  S
C340       C1035   1.411       .  A
C340        C341   1.401       .  A
C341        C342   1.395       .  A
C341        H348   1.085       .  S
C342        S344   1.805       .  S
S343        H346   1.406       .  S
S344        H345   1.403       .  S
O349       Zr361   2.433   1_655  S
O349       C1047   1.287       .  A
O350       C1047   1.287   1_455  A
C351       O1045   1.287       .  A
C351       O1046   1.287       .  A
C351        C514   1.472       .  S
O352        C354   1.287       .  A
O353       Zr388   2.433       .  S
O353        C354   1.288       .  A
C354        C451   1.475       .  S
O355       Zr364   2.443       .  S
O356      Zr1083   2.436       .  S
C357        C466   1.477       .  S
O358      Zr1231   2.436       .  S
O358        C360   1.287       .  A
O359       Zr388   2.430       .  S
O359        C360   1.287       .  A
C360        C502   1.473       .  S
Zr361      O1228   2.429       .  S
Zr361      O1063   2.370   1_455  S
Zr361      O1238   2.373   1_455  S
Zr361       O565   2.369       .  S
Zr361       O393   2.371       .  S
Zr361      O1058   2.435   1_455  S
Zr361       O537   2.435       .  S
O362      Zr1057   2.434       .  S
O362        H405   0.990       .  S
O363       Zr535   2.436       .  S
O363        H578   0.990   1_554  S
O363        H582   0.990       .  S
Zr364       O392   2.370       .  S
Zr364       O568   2.371       .  S
Zr364       O540   2.434       .  S
O365        H580   0.990       .  S
O365        H409   0.990       .  S
O366       Zr538   2.434       .  S
O366        H573   0.990   1_556  S
O367      Zr1057   2.369       .  S
O367       Zr735   2.386       .  S
O368      Zr1231   2.374       .  S
O368       Zr388   2.388       .  S
O368        H395   0.967       .  S
O369       Zr381   2.445       .  S
O370      Zr1084   2.437   1_445  S
O372      Zr1254   2.447       .  S
O372        C374   1.290       .  A
O373       Zr387   2.425       .  S
O373        C374   1.285   1_455  A
C374        C490   1.477       .  S
O375       Zr384   2.437       .  S
O375       C1073   1.288       .  A
O376       C1073   1.287       .  A
C377       O1071   1.287       .  A
C377       O1072   1.286       .  A
C377       C1174   1.467       .  S
O378        C380   1.285       .  A
O379       Zr387   2.439       .  S
O379        C380   1.289       .  A
C380        C439   1.468       .  S
Zr381       O567   2.376   1_544  S
Zr381       O391   2.370   1_545  S
Zr381       O383   2.435   1_545  S
O382        H576   0.990       .  S
O382        H581   0.990       .  S
O383        H403   0.990       .  S
Zr384      O1242   2.447   1_554  S
Zr384      O1260   2.370   1_554  S
Zr384      O1085   2.372       .  S
Zr384       O394   2.371       .  S
Zr384       O566   2.359   1_554  S
Zr384      O1081   2.434       .  S
Zr384       O560   2.435   1_554  S
O385      Zr1080   2.434   1_455  S
O385        H575   0.990   1_554  S
O386       Zr558   2.436       .  S
O386        H574   0.990       .  S
O386        H584   0.990       .  S
Zr387      O1052   2.437   1_455  S
Zr387       O715   2.385   1_455  S
Zr387       O390   2.383       .  S
Zr387      O1088   2.386   1_455  S
Zr388      O1066   2.437   1_565  S
Zr388       O737   2.390   1_565  S
Zr388      O1087   2.382       .  S
O389      Zr1080   2.370   1_455  S
O389       Zr736   2.386   1_455  S
O389        H397   0.966       .  S
O390      Zr1254   2.370   1_455  S
O391       Zr535   2.370       .  S
O391      Zr1084   2.382   1_455  S
O392       Zr558   2.360       .  S
O392      Zr1083   2.388       .  S
O392        H396   0.965       .  S
O393       Zr555   2.377   1_565  S
O393        H398   0.966       .  S
O394       Zr538   2.370   1_554  S
H399        O540   0.990       .  S
H400        O560   0.990   1_554  S
H401        O559   0.990       .  S
H402        O556   0.990       .  S
H404        O537   0.990       .  S
H406        O539   0.990   1_556  S
H407        O556   0.990       .  S
H408        O537   0.990       .  S
H410        O560   0.990   1_554  S
C411        C511   1.486       .  S
C411        C412   1.416       .  A
C411        C416   1.407       .  A
C412        C499   1.487       .  S
C412        C413   1.400       .  A
C413        C414   1.403       .  A
C413        H418   1.085       .  S
C414        C475   1.482       .  S
C414        C415   1.411       .  A
C415        C487   1.487       .  S
C415        C416   1.404       .  A
C416        H417   1.084       .  S
C419        C463   1.489   1_545  S
C419        C420   1.418       .  A
C419        C424   1.403       .  A
C420        C454   1.490       .  S
C420        C421   1.409       .  A
C421        C422   1.406       .  A
C421        H426   1.084       .  S
C422        C430   1.494       .  S
C422        C423   1.412       .  A
C423        C442   1.475       .  S
C423        C424   1.401       .  A
C424        H425   1.085       .  S
C427        C432   1.413   1_545  A
C428        C429   1.401       .  A
C428        H437   1.084       .  S
C429        S433   1.802       .  S
C430        C431   1.406   1_545  A
C431        C432   1.402       .  A
C431        H438   1.079       .  S
C432        S434   1.799       .  S
S433        H436   1.407       .  S
S434        H435   1.406       .  S
C439        C444   1.413       .  A
C440        C441   1.397       .  A
C440        H449   1.082       .  S
C441        C442   1.413   1_565  A
C441        S445   1.809       .  S
C443        C444   1.401       .  A
C443        H450   1.084       .  S
C444        S446   1.807       .  S
S445        H448   1.403       .  S
S446        H447   1.403       .  S
C451        C456   1.410       .  A
C452        C453   1.398       .  A
C452        H461   1.084       .  S
C453        S457   1.804       .  S
C454        C455   1.405   1_545  A
C455        C456   1.399       .  A
C455        H462   1.083       .  S
C456        S458   1.798       .  S
S457        H460   1.403       .  S
S458        H459   1.406       .  S
C463        C464   1.405       .  A
C464        C465   1.400       .  A
C464        H473   1.084       .  S
C465        C466   1.412       .  A
C465        S469   1.805       .  S
C467        C468   1.403       .  A
C467        H474   1.084       .  S
C468        S470   1.801       .  S
S469        H472   1.407       .  S
S470        H471   1.406       .  S
C475        C476   1.404       .  A
C475       C1176   1.412       .  A
C476        C477   1.399       .  A
C476        H485   1.084       .  S
C477        C478   1.412       .  A
C477        S481   1.800       .  S
C478       C1073   1.470       .  S
C478       C1175   1.401       .  A
C479       C1174   1.401   1_455  A
C479        C480   1.395       .  A
C479        H486   1.084       .  S
C480       C1171   1.413   1_455  A
C480        S482   1.805       .  S
S481        H484   1.405       .  S
S482        H483   1.407       .  S
C487       C1184   1.405       .  A
C487        C492   1.413       .  A
C488       C1183   1.405   1_455  A
C488        C489   1.401       .  A
C488        H497   1.084       .  S
C489        C490   1.412   1_455  A
C489        S493   1.795       .  S
C490       C1187   1.402       .  A
C491       C1186   1.402       .  A
C491        C492   1.397       .  A
C491        H498   1.084       .  S
C492        S494   1.802       .  S
S493        H496   1.406       .  S
S494        H495   1.406       .  S
C499       C1196   1.406       .  A
C499        C504   1.412       .  A
C500       C1195   1.405   1_455  A
C500        C501   1.399       .  A
C500        H509   1.084       .  S
C501       C1198   1.412       .  A
C501        S505   1.806       .  S
C502       C1197   1.412       .  A
C502        C503   1.400       .  A
C503        C504   1.399       .  A
C503        H510   1.078       .  S
C504        S506   1.801       .  S
S505        H508   1.405       .  S
S506        H507   1.406       .  S
C511       C1208   1.406       .  A
C511        C516   1.417       .  A
C512       C1207   1.406   1_455  A
C512        C513   1.400       .  A
C512        H521   1.083       .  S
C513       C1210   1.411   1_455  A
C513        S517   1.801       .  S
C514       C1209   1.411       .  A
C514        C515   1.401       .  A
C515        C516   1.396       .  A
C515        H522   1.084       .  S
C516        S518   1.806       .  S
S517        H520   1.406       .  S
S518        H519   1.403       .  S
O523       Zr535   2.439   1_656  S
O523       C1221   1.288       .  A
O524       C1221   1.286   1_455  A
C525       O1219   1.288       .  A
C525       O1220   1.286       .  A
C525        C688   1.473       .  S
O526        C528   1.287       .  A
O527       Zr562   2.428       .  S
O527        C528   1.287       .  A
C528        C625   1.473       .  S
O529       Zr538   2.442       .  S
O530      Zr1257   2.435       .  S
C531        C640   1.477       .  S
O532      Zr1057   2.435       .  S
O532        C534   1.286       .  A
O533       Zr562   2.426       .  S
O533        C534   1.287       .  A
C534        C676   1.471       .  S
Zr535      O1054   2.435       .  S
Zr535      O1237   2.371   1_454  S
Zr535      O1064   2.374   1_455  S
Zr535       O567   2.370   1_554  S
Zr535      O1232   2.435   1_455  S
O536      Zr1231   2.435       .  S
O536        H579   0.990       .  S
Zr538       O566   2.371       .  S
O539        H583   0.990   1_554  S
O541      Zr1231   2.370   1_556  S
O541       Zr909   2.387       .  S
O542      Zr1057   2.376       .  S
O542       Zr562   2.391       .  S
O542        H569   0.967       .  S
O543       Zr555   2.441       .  S
O544      Zr1258   2.437   1_445  S
O546      Zr1080   2.444   1_556  S
O546        C548   1.289       .  A
O547       Zr561   2.428       .  S
O547        C548   1.286   1_455  A
C548        C664   1.477       .  S
O549       Zr558   2.436       .  S
O549       C1247   1.287       .  A
O550       C1247   1.287       .  A
C551       O1245   1.287       .  A
C551       O1246   1.286       .  A
C551       C1348   1.467       .  S
O552        C554   1.285       .  A
O553       Zr561   2.440       .  S
O553        C554   1.289       .  A
C554        C613   1.470       .  S
Zr555       O565   2.371   1_545  S
Zr555       O557   2.434   1_545  S
O557        H577   0.990       .  S
Zr558      O1068   2.444       .  S
Zr558      O1086   2.371       .  S
Zr558      O1259   2.370       .  S
Zr558       O568   2.372       .  S
Zr558      O1255   2.433       .  S
O559      Zr1254   2.435   1_455  S
Zr561      O1226   2.433   1_455  S
Zr561       O889   2.386   1_455  S
Zr561       O564   2.384       .  S
Zr561      O1262   2.387   1_455  S
Zr562      O1240   2.438   1_565  S
Zr562       O911   2.386   1_565  S
Zr562      O1261   2.382       .  S
O563      Zr1254   2.371   1_455  S
O563       Zr910   2.388   1_455  S
O563        H571   0.966       .  S
O564      Zr1080   2.372   1_456  S
O565      Zr1258   2.381   1_455  S
O566      Zr1257   2.386       .  S
O566        H570   0.966       .  S
O567        H572   0.966       .  S
C585        C685   1.487       .  S
C585        C586   1.416       .  A
C585        C590   1.407       .  A
C586        C673   1.486       .  S
C586        C587   1.401       .  A
C587        C588   1.403       .  A
C587        H592   1.085       .  S
C588        C649   1.482       .  S
C588        C589   1.411       .  A
C589        C661   1.487       .  S
C589        C590   1.404       .  A
C590        H591   1.084       .  S
C593        C637   1.489   1_545  S
C593        C594   1.418       .  A
C593        C598   1.404       .  A
C594        C628   1.490       .  S
C594        C595   1.409       .  A
C595        C596   1.406       .  A
C595        H600   1.084       .  S
C596        C604   1.493       .  S
C596        C597   1.412       .  A
C597        C616   1.477       .  S
C597        C598   1.402       .  A
C598        H599   1.085       .  S
C601        C606   1.412   1_545  A
C602        C603   1.400       .  A
C602        H611   1.084       .  S
C603        S607   1.803       .  S
C604        C605   1.406   1_545  A
C605        C606   1.401       .  A
C605        H612   1.079       .  S
C606        S608   1.798       .  S
S607        H610   1.406       .  S
S608        H609   1.407       .  S
C613        C618   1.413       .  A
C614        C615   1.397       .  A
C614        H623   1.082       .  S
C615        C616   1.413   1_565  A
C615        S619   1.809       .  S
C617        C618   1.402       .  A
C617        H624   1.084       .  S
C618        S620   1.807       .  S
S619        H622   1.403       .  S
S620        H621   1.403       .  S
C625        C630   1.410       .  A
C626        C627   1.398       .  A
C626        H635   1.084       .  S
C627        S631   1.804       .  S
C628        C629   1.405   1_545  A
C629        C630   1.399       .  A
C629        H636   1.083       .  S
C630        S632   1.798       .  S
S631        H634   1.403       .  S
S632        H633   1.406       .  S
C637        C638   1.405       .  A
C638        C639   1.399       .  A
C638        H647   1.084       .  S
C639        C640   1.411       .  A
C639        S643   1.804       .  S
C641        C642   1.403       .  A
C641        H648   1.084       .  S
C642        S644   1.801       .  S
S643        H646   1.407       .  S
S644        H645   1.406       .  S
C649        C650   1.404       .  A
C649       C1350   1.413       .  A
C650        C651   1.399       .  A
C650        H659   1.084       .  S
C651        C652   1.412       .  A
C651        S655   1.801       .  S
C652       C1247   1.469       .  S
C652       C1349   1.402       .  A
C653       C1348   1.401   1_455  A
C653        C654   1.394       .  A
C653        H660   1.084       .  S
C654       C1345   1.413   1_455  A
C654        S656   1.805       .  S
S655        H658   1.405       .  S
S656        H657   1.407       .  S
C661       C1358   1.404       .  A
C661        C666   1.413       .  A
C662       C1357   1.404   1_455  A
C662        C663   1.400       .  A
C662        H671   1.084       .  S
C663        C664   1.411   1_455  A
C663        S667   1.794       .  S
C664       C1361   1.402       .  A
C665       C1360   1.402       .  A
C665        C666   1.397       .  A
C665        H672   1.084       .  S
C666        S668   1.802       .  S
S667        H670   1.406       .  S
S668        H669   1.406       .  S
C673       C1370   1.406       .  A
C673        C678   1.412       .  A
C674       C1369   1.406   1_455  A
C674        C675   1.399       .  A
C674        H683   1.084       .  S
C675       C1372   1.412       .  A
C675        S679   1.807       .  S
C676       C1371   1.411       .  A
C676        C677   1.399       .  A
C677        C678   1.398       .  A
C677        H684   1.077       .  S
C678        S680   1.801       .  S
S679        H682   1.405       .  S
S680        H681   1.406       .  S
C685       C1382   1.405       .  A
C685        C690   1.417       .  A
C686       C1381   1.406   1_455  A
C686        C687   1.400       .  A
C686        H695   1.083       .  S
C687       C1384   1.412   1_455  A
C687        S691   1.800       .  S
C688       C1383   1.411       .  A
C688        C689   1.401       .  A
C689        C690   1.396       .  A
C689        H696   1.084       .  S
C690        S692   1.805       .  S
S691        H694   1.406       .  S
S692        H693   1.403       .  S
O697       Zr709   2.432       .  S
O698      Zr1083   2.428       .  S
C699        C862   1.471       .  S
O700      Zr1234   2.439   1_554  S
O700        C702   1.287       .  A
O701       Zr736   2.431       .  S
O701        C702   1.287       .  A
C702        C799   1.475       .  S
O703       Zr712   2.441       .  S
O703       C1053   1.288       .  A
O704       C1053   1.288       .  A
C705       O1051   1.289       .  A
C705       O1052   1.288       .  A
C705        C814   1.477       .  S
O706        C708   1.286       .  A
O707       Zr736   2.431       .  S
O707        C708   1.287   1_655  A
C708        C850   1.471       .  S
Zr709       O913   2.370       .  S
Zr709       O741   2.371       .  S
Zr709       O885   2.436       .  S
O710        H753   0.990       .  S
O711       Zr883   2.436   1_556  S
O711        H926   0.990       .  S
O711        H930   0.990   1_556  S
Zr712      O1222   2.438       .  S
Zr712      O1238   2.369       .  S
Zr712      O1063   2.367       .  S
Zr712       O740   2.368   1_565  S
Zr712       O916   2.370   1_565  S
Zr712      O1061   2.434       .  S
Zr712       O888   2.434   1_565  S
O713      Zr1060   2.434       .  S
O713        H928   0.990       .  S
O713        H757   0.990       .  S
O714       Zr886   2.433   1_545  S
O714        H921   0.990   1_556  S
O715      Zr1060   2.364       .  S
O716      Zr1234   2.370   1_554  S
O716       Zr736   2.389       .  S
O716        H743   0.967       .  S
O717       Zr729   2.442       .  S
O717       C1067   1.288       .  A
O718       C1067   1.289       .  A
C719       O1065   1.288       .  A
C719       O1066   1.288       .  A
C719       C1123   1.483       .  S
O720        C722   1.289       .  A
O721       Zr735   2.426   1_545  S
O721        C722   1.286       .  A
C722        C838   1.477       .  S
O723       Zr732   2.434       .  S
O724      Zr1084   2.429   1_545  S
O726      Zr1251   2.432       .  S
O726        C728   1.285       .  A
O727       Zr735   2.442   1_545  S
O727        C728   1.290       .  A
C728        C787   1.470       .  S
Zr729      O1248   2.432   1_554  S
Zr729      O1085   2.364       .  S
Zr729      O1260   2.375   1_554  S
Zr729       O915   2.376   1_554  S
Zr729       O739   2.370       .  S
Zr729      O1252   2.436       .  S
Zr729       O731   2.433       .  S
O730      Zr1251   2.435       .  S
O730        H924   0.990       .  S
O730        H929   0.990       .  S
O731        H751   0.990       .  S
Zr732       O742   2.371       .  S
Zr732       O914   2.361   1_554  S
Zr732       O908   2.435   1_554  S
O733        H923   0.990   1_554  S
O734       Zr906   2.435       .  S
O734        H922   0.990       .  S
O734        H932   0.990       .  S
Zr735      O1046   2.427       .  S
Zr735       O738   2.383   1_565  S
Zr735      O1089   2.390       .  S
Zr736      O1072   2.425       .  S
Zr736      O1090   2.386       .  S
O737      Zr1077   2.367       .  S
O737        H745   0.966       .  S
O738      Zr1251   2.375       .  S
O739       Zr883   2.371       .  S
O740       Zr906   2.361       .  S
O740        H744   0.966       .  S
O741       Zr903   2.376       .  S
O741      Zr1083   2.386       .  S
O741        H746   0.965       .  S
O742       Zr886   2.372   1_544  S
O742      Zr1084   2.384   1_545  S
H747        O888   0.990       .  S
H748        O908   0.990   1_554  S
H749        O907   0.990       .  S
H750        O904   0.990       .  S
H752        O885   0.990       .  S
H754        O887   0.990   1_556  S
H755        O904   0.991       .  S
H756        O885   0.990       .  S
H758        O908   0.990   1_554  S
C759        C859   1.486       .  S
C759        C760   1.416       .  A
C759        C764   1.407       .  A
C760        C847   1.486       .  S
C760        C761   1.400       .  A
C761        C762   1.402       .  A
C761        H766   1.085       .  S
C762        C823   1.481       .  S
C762        C763   1.412       .  A
C763        C835   1.489       .  S
C763        C764   1.404       .  A
C764        H765   1.084       .  S
C767        C811   1.489       .  S
C767        C768   1.419       .  A
C767        C772   1.403       .  A
C768        C802   1.492       .  S
C768        C769   1.410       .  A
C769        C770   1.407       .  A
C769        H774   1.084       .  S
C770        C778   1.495       .  S
C770        C771   1.413       .  A
C771        C790   1.477       .  S
C771        C772   1.401       .  A
C772        H773   1.085       .  S
C775       C1067   1.483       .  S
C775       C1124   1.404       .  A
C775        C780   1.412       .  A
C776       C1123   1.404       .  A
C776        C777   1.400       .  A
C776        H785   1.084       .  S
C777       C1126   1.414       .  A
C777        S781   1.802       .  S
C778       C1125   1.415       .  A
C778        C779   1.406       .  A
C779        C780   1.401       .  A
C779        H786   1.078       .  S
C780        S782   1.798       .  S
S781        H784   1.407       .  S
S782        H783   1.406       .  S
C787       C1136   1.401   1_545  A
C787        C792   1.414       .  A
C788       C1135   1.400       .  A
C788        C789   1.397       .  A
C788        H797   1.082       .  S
C789        C790   1.414       .  A
C789        S793   1.810       .  S
C790       C1139   1.403       .  A
C791       C1138   1.402       .  A
C791        C792   1.401       .  A
C791        H798   1.084       .  S
C792        S794   1.806       .  S
S793        H796   1.403       .  S
S794        H795   1.403       .  S
C799       C1148   1.401       .  A
C799        C804   1.410       .  A
C800       C1147   1.401   1_545  A
C800        C801   1.398       .  A
C800        H809   1.084       .  S
C801       C1150   1.418       .  A
C801        S805   1.804       .  S
C802       C1149   1.418       .  A
C802        C803   1.406       .  A
C803        C804   1.400       .  A
C803        H810   1.083       .  S
C804        S806   1.798       .  S
S805        H808   1.404       .  S
S806        H807   1.406       .  S
C811        C812   1.405       .  A
C811       C1164   1.415       .  A
C812        C813   1.399       .  A
C812        H821   1.084       .  S
C813        C814   1.411       .  A
C813        S817   1.804       .  S
C814       C1163   1.404       .  A
C815       C1162   1.404   1_545  A
C815        C816   1.403       .  A
C815        H822   1.084       .  S
C816       C1159   1.415   1_545  A
C816        S818   1.801       .  S
S817        H820   1.407       .  S
S818        H819   1.406       .  S
C823        C824   1.404       .  A
C824        C825   1.399       .  A
C824        H833   1.084       .  S
C825        C826   1.412       .  A
C825        S829   1.801       .  S
C827        C828   1.395       .  A
C827        H834   1.084       .  S
C828        S830   1.805       .  S
S829        H832   1.405       .  S
S830        H831   1.407       .  S
C835        C840   1.414       .  A
C836        C837   1.401       .  A
C836        H845   1.083       .  S
C837        C838   1.412       .  A
C837        S841   1.794       .  S
C839        C840   1.397       .  A
C839        H846   1.084       .  S
C840        S842   1.801       .  S
S841        H844   1.405       .  S
S842        H843   1.406       .  S
C847        C852   1.412       .  A
C848        C849   1.400       .  A
C848        H857   1.084       .  S
C849        S853   1.807       .  S
C850        C851   1.400   1_455  A
C851        C852   1.399       .  A
C851        H858   1.079       .  S
C852        S854   1.800       .  S
S853        H856   1.405       .  S
S854        H855   1.406       .  S
C859        C864   1.417       .  A
C860        C861   1.399       .  A
C860        H869   1.083       .  S
C861        S865   1.800       .  S
C862        C863   1.400       .  A
C863        C864   1.395       .  A
C863        H870   1.085       .  S
C864        S866   1.805       .  S
S865        H868   1.406       .  S
S866        H867   1.403       .  S
O871       Zr883   2.433   1_556  S
O872      Zr1257   2.426       .  S
C873       C1036   1.471       .  S
O874      Zr1060   2.441       .  S
O874        C876   1.288       .  A
O875       Zr910   2.431       .  S
O875        C876   1.287       .  A
C876        C973   1.475       .  S
O877       Zr886   2.444       .  S
O877       C1227   1.289       .  A
O878       C1227   1.288       .  A
C879       O1225   1.289       .  A
C879       O1226   1.288       .  A
C879        C988   1.476       .  S
O880        C882   1.286       .  A
O881       Zr910   2.434       .  S
O881        C882   1.288   1_655  A
C882       C1024   1.472       .  S
Zr883       O915   2.371   1_554  S
O884        H927   0.990       .  S
Zr886      O1048   2.438   1_556  S
Zr886      O1064   2.367   1_556  S
Zr886      O1237   2.367       .  S
Zr886       O914   2.370   1_565  S
Zr886      O1235   2.434   1_556  S
O887      Zr1234   2.434   1_554  S
O887        H931   0.990   1_554  S
O889      Zr1234   2.365       .  S
O890      Zr1060   2.367       .  S
O890       Zr910   2.387       .  S
O890        H917   0.967       .  S
O891       Zr903   2.439       .  S
O891       C1241   1.288       .  A
O892       C1241   1.288       .  A
C893       O1239   1.288       .  A
C893       O1240   1.288       .  A
C893       C1297   1.483       .  S
O894        C896   1.289       .  A
O895       Zr909   2.426   1_545  S
O895        C896   1.285       .  A
C896       C1012   1.478       .  S
O897       Zr906   2.436       .  S
O898      Zr1258   2.425   1_545  S
O900      Zr1077   2.432   1_556  S
O900        C902   1.285       .  A
O901       Zr909   2.440   1_545  S
O901        C902   1.289       .  A
C902        C961   1.470       .  S
Zr903      O1074   2.430       .  S
Zr903      O1259   2.363       .  S
Zr903      O1086   2.375       .  S
Zr903       O913   2.371       .  S
Zr903      O1078   2.436       .  S
Zr903       O905   2.434       .  S
O904      Zr1077   2.436       .  S
O905        H925   0.990       .  S
Zr906       O916   2.370       .  S
Zr909      O1220   2.424       .  S
Zr909       O912   2.385   1_565  S
Zr909      O1263   2.390       .  S
Zr910      O1246   2.425       .  S
Zr910      O1264   2.386       .  S
O911      Zr1251   2.365       .  S
O911        H919   0.966       .  S
O912      Zr1077   2.377   1_556  S
O914        H918   0.966       .  S
O915      Zr1257   2.387       .  S
O915        H920   0.965       .  S
O916      Zr1258   2.384   1_545  S
C933       C1033   1.486       .  S
C933        C934   1.415       .  A
C933        C938   1.407       .  A
C934       C1021   1.485       .  S
C934        C935   1.400       .  A
C935        C936   1.402       .  A
C935        H940   1.085       .  S
C936        C997   1.480       .  S
C936        C937   1.411       .  A
C937       C1009   1.487       .  S
C937        C938   1.404       .  A
C938        H939   1.084       .  S
C941        C985   1.489       .  S
C941        C942   1.418       .  A
C941        C946   1.404       .  A
C942        C976   1.492       .  S
C942        C943   1.410       .  A
C943        C944   1.407       .  A
C943        H948   1.084       .  S
C944        C952   1.495       .  S
C944        C945   1.413       .  A
C945        C964   1.478       .  S
C945        C946   1.402       .  A
C946        H947   1.085       .  S
C949       C1241   1.482       .  S
C949       C1298   1.404       .  A
C949        C954   1.412       .  A
C950       C1297   1.404       .  A
C950        C951   1.401       .  A
C950        H959   1.084       .  S
C951       C1300   1.415       .  A
C951        S955   1.802       .  S
C952       C1299   1.415       .  A
C952        C953   1.406       .  A
C953        C954   1.401       .  A
C953        H960   1.078       .  S
C954        S956   1.799       .  S
S955        H958   1.407       .  S
S956        H957   1.407       .  S
C961       C1310   1.400   1_545  A
C961        C966   1.414       .  A
C962       C1309   1.401       .  A
C962        C963   1.398       .  A
C962        H971   1.082       .  S
C963        C964   1.414       .  A
C963        S967   1.810       .  S
C964       C1313   1.402       .  A
C965       C1312   1.403       .  A
C965        C966   1.402       .  A
C965        H972   1.084       .  S
C966        S968   1.806       .  S
S967        H970   1.403       .  S
S968        H969   1.403       .  S
C973       C1322   1.401       .  A
C973        C978   1.411       .  A
C974       C1321   1.401   1_545  A
C974        C975   1.397       .  A
C974        H983   1.084       .  S
C975       C1324   1.418       .  A
C975        S979   1.803       .  S
C976       C1323   1.417       .  A
C976        C977   1.406       .  A
C977        C978   1.400       .  A
C977        H984   1.083       .  S
C978        S980   1.799       .  S
S979        H982   1.403       .  S
S980        H981   1.406       .  S
C985        C986   1.405       .  A
C985       C1338   1.415       .  A
C986        C987   1.399       .  A
C986        H995   1.084       .  S
C987        C988   1.411       .  A
C987        S991   1.804       .  S
C988       C1337   1.404       .  A
C989       C1336   1.404   1_545  A
C989        C990   1.404       .  A
C989        H996   1.084       .  S
C990       C1333   1.415   1_545  A
C990        S992   1.802       .  S
S991        H994   1.407       .  S
S992        H993   1.406       .  S
C997        C998   1.404       .  A
C998        C999   1.399       .  A
C998       H1007   1.084       .  S
C999       C1000   1.412       .  A
C999       S1003   1.801       .  S
C1001      C1002   1.394       .  A
C1001      H1008   1.084       .  S
C1002      S1004   1.805       .  S
S1003      H1006   1.405       .  S
S1004      H1005   1.407       .  S
C1009      C1014   1.412       .  A
C1010      C1011   1.401       .  A
C1010      H1019   1.083       .  S
C1011      C1012   1.412       .  A
C1011      S1015   1.795       .  S
C1013      C1014   1.396       .  A
C1013      H1020   1.084       .  S
C1014      S1016   1.801       .  S
S1015      H1018   1.405       .  S
S1016      H1017   1.407       .  S
C1021      C1026   1.412       .  A
C1022      C1023   1.399       .  A
C1022      H1031   1.084       .  S
C1023      S1027   1.806       .  S
C1024      C1025   1.401   1_455  A
C1025      C1026   1.399       .  A
C1025      H1032   1.079       .  S
C1026      S1028   1.801       .  S
S1027      H1030   1.405       .  S
S1028      H1029   1.406       .  S
C1033      C1038   1.417       .  A
C1034      C1035   1.399       .  A
C1034      H1043   1.083       .  S
C1035      S1039   1.801       .  S
C1036      C1037   1.401       .  A
C1037      C1038   1.396       .  A
C1037      H1044   1.085       .  S
C1038      S1040   1.805       .  S
S1039      H1042   1.406       .  S
S1040      H1041   1.403       .  S
O1045     Zr1057   2.436       .  S
C1047      C1210   1.472       .  S
O1048      C1050   1.287       .  A
O1049     Zr1084   2.432       .  S
O1049      C1050   1.287       .  A
C1050      C1147   1.475       .  S
O1051     Zr1060   2.444       .  S
C1053      C1162   1.476       .  S
O1054      C1056   1.287       .  A
O1055     Zr1084   2.431       .  S
O1055      C1056   1.287   1_655  A
C1056      C1198   1.472       .  S
Zr1057     O1261   2.370       .  S
Zr1057     O1089   2.371       .  S
Zr1057     O1233   2.436       .  S
O1058      H1101   0.990       .  S
O1059     Zr1231   2.436       .  S
O1059      H1274   0.990   1_554  S
O1059      H1278   0.990       .  S
Zr1060     O1088   2.370       .  S
Zr1060     O1264   2.372       .  S
Zr1060     O1236   2.434       .  S
O1061      H1276   0.990       .  S
O1061      H1105   0.990       .  S
O1062     Zr1234   2.434       .  S
O1062      H1269   0.990   1_556  S
O1064     Zr1084   2.388       .  S
O1064      H1091   0.967       .  S
O1065     Zr1077   2.443       .  S
O1068      C1070   1.289       .  A
O1069     Zr1083   2.425       .  S
O1069      C1070   1.285       .  A
C1070      C1186   1.477       .  S
O1071     Zr1080   2.435       .  S
O1074      C1076   1.285       .  A
O1075     Zr1083   2.441       .  S
O1075      C1076   1.289       .  A
C1076      C1135   1.469       .  S
Zr1077     O1263   2.376   1_544  S
Zr1077     O1087   2.370   1_545  S
Zr1077     O1079   2.434   1_545  S
O1078      H1272   0.990       .  S
O1078      H1277   0.990       .  S
O1079      H1099   0.990       .  S
Zr1080     O1090   2.370       .  S
Zr1080     O1262   2.361   1_554  S
Zr1080     O1256   2.436       .  S
O1081      H1271   0.990       .  S
O1082     Zr1254   2.436       .  S
O1082      H1270   0.990       .  S
O1082      H1280   0.990       .  S
Zr1083     O1086   2.384       .  S
O1085      H1093   0.966       .  S
O1087     Zr1231   2.371       .  S
O1088     Zr1254   2.360       .  S
O1088      H1092   0.965       .  S
O1089     Zr1251   2.379   1_565  S
O1089      H1094   0.966       .  S
O1090     Zr1234   2.372   1_554  S
H1095      O1236   0.990       .  S
H1096      O1256   0.990       .  S
H1097      O1255   0.990       .  S
H1098      O1252   0.990       .  S
H1100      O1233   0.990       .  S
H1102      O1235   0.990   1_556  S
H1103      O1252   0.990       .  S
H1104      O1233   0.990       .  S
H1106      O1256   0.990       .  S
C1107      C1207   1.487       .  S
C1107      C1108   1.415       .  A
C1107      C1112   1.407       .  A
C1108      C1195   1.485       .  S
C1108      C1109   1.401       .  A
C1109      C1110   1.403       .  A
C1109      H1114   1.085       .  S
C1110      C1171   1.481       .  S
C1110      C1111   1.411       .  A
C1111      C1183   1.488       .  S
C1111      C1112   1.404       .  A
C1112      H1113   1.084       .  S
C1115      C1159   1.489   1_545  S
C1115      C1116   1.419       .  A
C1115      C1120   1.404       .  A
C1116      C1150   1.492       .  S
C1116      C1117   1.410       .  A
C1117      C1118   1.406       .  A
C1117      H1122   1.084       .  S
C1118      C1126   1.494       .  S
C1118      C1119   1.412       .  A
C1119      C1138   1.478       .  S
C1119      C1120   1.402       .  A
C1120      H1121   1.085   1_545  S
C1123      C1128   1.413   1_545  A
C1124      C1125   1.401       .  A
C1124      H1133   1.084       .  S
C1125      S1129   1.803       .  S
C1126      C1127   1.406   1_545  A
C1127      C1128   1.402       .  A
C1127      H1134   1.080       .  S
C1128      S1130   1.798       .  S
S1129      H1132   1.406       .  S
S1130      H1131   1.407       .  S
C1135      C1140   1.413       .  A
C1136      C1137   1.397       .  A
C1136      H1145   1.083       .  S
C1137      C1138   1.413   1_565  A
C1137      S1141   1.808       .  S
C1139      C1140   1.401       .  A
C1139      H1146   1.084       .  S
C1140      S1142   1.807       .  S
S1141      H1144   1.403       .  S
S1142      H1143   1.403       .  S
C1147      C1152   1.410       .  A
C1148      C1149   1.397       .  A
C1148      H1157   1.084       .  S
C1149      S1153   1.804       .  S
C1150      C1151   1.405   1_545  A
C1151      C1152   1.399       .  A
C1151      H1158   1.083       .  S
C1152      S1154   1.797       .  S
S1153      H1156   1.403       .  S
S1154      H1155   1.406       .  S
C1159      C1160   1.405       .  A
C1160      C1161   1.399       .  A
C1160      H1169   1.084       .  S
C1161      C1162   1.411       .  A
C1161      S1165   1.804       .  S
C1163      C1164   1.403       .  A
C1163      H1170   1.084       .  S
C1164      S1166   1.802       .  S
S1165      H1168   1.407       .  S
S1166      H1167   1.406       .  S
C1171      C1172   1.404       .  A
C1172      C1173   1.399       .  A
C1172      H1181   1.084       .  S
C1173      C1174   1.411       .  A
C1173      S1177   1.801       .  S
C1175      C1176   1.394       .  A
C1175      H1182   1.084       .  S
C1176      S1178   1.805       .  S
S1177      H1180   1.405       .  S
S1178      H1179   1.407       .  S
C1183      C1188   1.413       .  A
C1184      C1185   1.401       .  A
C1184      H1193   1.083       .  S
C1185      C1186   1.412       .  A
C1185      S1189   1.795       .  S
C1187      C1188   1.397       .  A
C1187      H1194   1.084       .  S
C1188      S1190   1.802       .  S
S1189      H1192   1.405       .  S
S1190      H1191   1.407       .  S
C1195      C1200   1.412       .  A
C1196      C1197   1.400       .  A
C1196      H1205   1.084       .  S
C1197      S1201   1.807       .  S
C1198      C1199   1.400   1_455  A
C1199      C1200   1.399       .  A
C1199      H1206   1.077       .  S
C1200      S1202   1.801       .  S
S1201      H1204   1.405       .  S
S1202      H1203   1.406       .  S
C1207      C1212   1.417       .  A
C1208      C1209   1.399       .  A
C1208      H1217   1.083       .  S
C1209      S1213   1.801       .  S
C1210      C1211   1.400       .  A
C1211      C1212   1.395       .  A
C1211      H1218   1.084       .  S
C1212      S1214   1.805       .  S
S1213      H1216   1.406       .  S
S1214      H1215   1.403       .  S
O1219     Zr1231   2.440   1_556  S
C1221      C1384   1.473       .  S
O1222      C1224   1.287       .  A
O1223     Zr1258   2.432       .  S
O1223      C1224   1.288       .  A
C1224      C1321   1.475       .  S
O1225     Zr1234   2.446       .  S
C1227      C1336   1.477       .  S
O1228      C1230   1.285       .  A
O1229     Zr1258   2.431       .  S
O1229      C1230   1.287   1_655  A
C1230      C1372   1.470       .  S
Zr1231     O1263   2.373   1_554  S
O1232      H1275   0.990   1_554  S
Zr1234     O1262   2.368       .  S
O1235      H1279   0.990   1_554  S
O1238     Zr1258   2.387       .  S
O1238      H1265   0.967       .  S
O1239     Zr1251   2.442       .  S
O1242      C1244   1.289       .  A
O1243     Zr1257   2.426       .  S
O1243      C1244   1.286       .  A
C1244      C1360   1.478       .  S
O1245     Zr1254   2.435       .  S
O1248      C1250   1.286       .  A
O1249     Zr1257   2.443       .  S
O1249      C1250   1.290       .  A
C1250      C1309   1.471       .  S
Zr1251     O1261   2.370   1_545  S
Zr1251     O1253   2.435   1_545  S
O1253      H1273   0.990       .  S
Zr1254     O1264   2.371       .  S
Zr1257     O1260   2.382       .  S
O1259      H1267   0.966       .  S
O1262      H1266   0.966       .  S
O1263      H1268   0.966       .  S
C1281      C1381   1.486       .  S
C1281      C1282   1.415       .  A
C1281      C1286   1.407       .  A
C1282      C1369   1.485       .  S
C1282      C1283   1.400       .  A
C1283      C1284   1.402       .  A
C1283      H1288   1.085       .  S
C1284      C1345   1.481       .  S
C1284      C1285   1.411       .  A
C1285      C1357   1.486       .  S
C1285      C1286   1.403       .  A
C1286      H1287   1.084       .  S
C1289      C1333   1.490   1_545  S
C1289      C1290   1.419       .  A
C1289      C1294   1.404       .  A
C1290      C1324   1.492       .  S
C1290      C1291   1.410       .  A
C1291      C1292   1.407       .  A
C1291      H1296   1.084       .  S
C1292      C1300   1.495       .  S
C1292      C1293   1.413       .  A
C1293      C1312   1.478       .  S
C1293      C1294   1.402       .  A
C1294      H1295   1.085       .  S
C1297      C1302   1.412   1_545  A
C1298      C1299   1.401       .  A
C1298      H1307   1.084       .  S
C1299      S1303   1.802       .  S
C1300      C1301   1.406   1_545  A
C1301      C1302   1.402       .  A
C1301      H1308   1.079       .  S
C1302      S1304   1.799       .  S
S1303      H1306   1.407       .  S
S1304      H1305   1.407       .  S
C1309      C1314   1.414       .  A
C1310      C1311   1.397       .  A
C1310      H1319   1.082       .  S
C1311      C1312   1.413   1_565  A
C1311      S1315   1.809       .  S
C1313      C1314   1.401       .  A
C1313      H1320   1.084       .  S
C1314      S1316   1.806       .  S
S1315      H1318   1.403       .  S
S1316      H1317   1.403       .  S
C1321      C1326   1.411       .  A
C1322      C1323   1.397       .  A
C1322      H1331   1.084       .  S
C1323      S1327   1.804       .  S
C1324      C1325   1.406   1_545  A
C1325      C1326   1.400       .  A
C1325      H1332   1.083       .  S
C1326      S1328   1.798       .  S
S1327      H1330   1.403       .  S
S1328      H1329   1.406       .  S
C1333      C1334   1.405       .  A
C1334      C1335   1.400       .  A
C1334      H1343   1.084       .  S
C1335      C1336   1.411       .  A
C1335      S1339   1.805       .  S
C1337      C1338   1.403       .  A
C1337      H1344   1.084       .  S
C1338      S1340   1.802       .  S
S1339      H1342   1.407       .  S
S1340      H1341   1.406       .  S
C1345      C1346   1.404       .  A
C1346      C1347   1.398       .  A
C1346      H1355   1.084       .  S
C1347      C1348   1.412       .  A
C1347      S1351   1.801       .  S
C1349      C1350   1.396       .  A
C1349      H1356   1.084       .  S
C1350      S1352   1.805       .  S
S1351      H1354   1.405       .  S
S1352      H1353   1.407       .  S
C1357      C1362   1.413       .  A
C1358      C1359   1.401       .  A
C1358      H1367   1.084       .  S
C1359      C1360   1.412       .  A
C1359      S1363   1.794       .  S
C1361      C1362   1.398       .  A
C1361      H1368   1.084       .  S
C1362      S1364   1.802       .  S
S1363      H1366   1.405       .  S
S1364      H1365   1.406       .  S
C1369      C1374   1.412       .  A
C1370      C1371   1.399       .  A
C1370      H1379   1.084       .  S
C1371      S1375   1.806       .  S
C1372      C1373   1.399   1_455  A
C1373      C1374   1.398       .  A
C1373      H1380   1.078       .  S
C1374      S1376   1.801       .  S
S1375      H1378   1.405       .  S
S1376      H1377   1.406       .  S
C1381      C1386   1.416       .  A
C1382      C1383   1.399       .  A
C1382      H1391   1.083       .  S
C1383      S1387   1.800       .  S
C1384      C1385   1.400       .  A
C1385      C1386   1.396       .  A
C1385      H1392   1.084       .  S
C1386      S1388   1.806       .  S
S1387      H1390   1.406       .  S
S1388      H1389   1.403       .  S
