geometry optimzed in LAMMPS
_audit_creation_date              2020-11-30 
_audit_creation_method            'lammps2cif' 
_symmetry_space_group_name_H-M    'P1' 
_symmetry_Int_Tables_number       1 
_symmetry_cell_setting            triclinic 
loop_ 
_symmetry_equiv_pos_as_xyz 
  x,y,z 
_cell_length_a                    118.66731108 
_cell_length_b                    67.19648216124236 
_cell_length_c                    35.25158551503141 
_cell_angle_alpha                 90.0532979370097 
_cell_angle_beta                  89.99737434598488 
_cell_angle_gamma                 90.15248806493143 
loop_ 
_atom_site_label 
_atom_site_type_symbol 
_atom_site_fract_x 
_atom_site_fract_y 
_atom_site_fract_z 
_atom_site_charge 
O1          O  0.69643885  0.55725001  0.23323035    -0.81500
O2          O  0.69316109  0.46756810  0.18979941    -0.66200
O3          O  0.68554672  0.52189385  0.21081600    -1.12800
C4          C  0.69007104  0.50073532  0.33925659     1.05400
O5          O  0.68064878  0.45932492  0.23269597    -0.79400
O6          O  0.67038466  0.48185151  0.28455778    -0.67000
Ni7        Ni  0.69293169  0.54346815  0.18655584     1.34900
C8          C  0.66587349  0.49872954  0.27937428     0.84100
O9          O  0.68726631  0.49867502  0.14487038    -0.79900
O10         O  0.68996004  0.53171742  0.13798070    -0.90200
C11         C  0.68776379  0.45422140  0.20779746     0.83700
O12         O  0.70780504  0.53298758  0.18550365    -0.68400
O13         O  0.68954288  0.48295044  0.32662329    -0.87700
C14         C  0.71164798  0.51539118  0.18459946     0.84500
C15         C  0.68809500  0.51436511  0.12444221     1.06100
H16         H  0.69996704  0.49255120  0.25720153     0.37900
O17         O  0.69196581  0.49331692  0.25235358    -1.10400
O18         O  0.67147310  0.51398107  0.26927012    -0.67000
Ni19       Ni  0.68734411  0.51963937  0.26446287     1.26300
O20         O  0.70555109  0.50009623  0.19063376    -0.67200
O21         O  0.68919959  0.51619794  0.31830176    -0.79500
C22         C  0.68966163  0.56061251  0.26042969     0.83900
O23         O  0.68342040  0.54684240  0.27334143    -0.66700
Ni24       Ni  0.68527737  0.47170150  0.27884913     1.27400
Ni25       Ni  0.68966364  0.49520912  0.19848748     1.26100
H26         H  0.67762662  0.52330151  0.20508076     0.38400
O27         O  0.69809541  0.55847741  0.73219369    -0.81500
O28         O  0.69223453  0.46836070  0.69106357    -0.66200
O29         O  0.68669420  0.52368329  0.70994633    -1.12800
C30         C  0.69079096  0.50313519  0.83935067     1.05400
O31         O  0.68006809  0.46164394  0.73587150    -0.79400
O32         O  0.67144681  0.48523061  0.78945918    -0.67000
Ni33       Ni  0.69542668  0.54372793  0.68592534     1.34900
C34         C  0.66672519  0.50161786  0.78147249     0.84100
O35         O  0.68708792  0.49960612  0.64534533    -0.79900
O36         O  0.69326663  0.53108568  0.63746557    -0.90200
C37         C  0.68663318  0.45565416  0.71002274     0.83700
O38         O  0.70989634  0.53159319  0.69066893    -0.68400
O39         O  0.69127640  0.48536010  0.82674155    -0.87700
C40         C  0.71265793  0.51353758  0.68577646     0.84500
C41         C  0.68983288  0.51438035  0.62434278     1.06100
H42         H  0.70048312  0.49422461  0.75647881     0.37900
O43         O  0.69244843  0.49505819  0.75236169    -1.10400
O44         O  0.67208255  0.51627427  0.76727421    -0.67000
Ni45       Ni  0.68808673  0.52159124  0.76377753     1.26300
O46         O  0.70562533  0.49929434  0.68844287    -0.67200
O47         O  0.68935970  0.51838419  0.81811117    -0.79500
C48         C  0.69106864  0.56243305  0.75845332     0.83900
O49         O  0.68456669  0.54903211  0.77151222    -0.66700
Ni50       Ni  0.68590545  0.47400071  0.78051210     1.27400
Ni51       Ni  0.68974398  0.49643189  0.69871593     1.26100
H52         H  0.67891584  0.52624412  0.70352158     0.38400
O53         O  0.55145193  0.55584077  0.39180272    -0.81500
O54         O  0.55871166  0.46612216  0.43474958    -0.66200
O55         O  0.56319255  0.52164602  0.41483403    -1.12800
C56         C  0.55856203  0.50042454  0.28580472     1.05400
O57         O  0.57040970  0.45974646  0.38824028    -0.79400
O58         O  0.57824077  0.48349294  0.33295397    -0.67000
Ni59       Ni  0.55396150  0.54112538  0.43821587     1.34900
C60         C  0.58293288  0.49993343  0.34121354     0.84100
O61         O  0.56349525  0.49805291  0.47979415    -0.79900
O62         O  0.55599703  0.52862375  0.48691946    -0.90200
C63         C  0.56418754  0.45360478  0.41497789     0.83700
O64         O  0.53981694  0.52792519  0.43153856    -0.68400
O65         O  0.55799653  0.48267388  0.29849574    -0.87700
C66         C  0.53742388  0.50986040  0.43832675     0.84500
C67         C  0.56013406  0.51256255  0.50049891     1.06100
H68         H  0.54952795  0.49149051  0.36959061     0.37900
O69         O  0.55758329  0.49253699  0.37308153    -1.10400
O70         O  0.57769594  0.51410024  0.35741236    -0.67000
Ni71       Ni  0.56169953  0.51911828  0.36117600     1.26300
O72         O  0.54478486  0.49616418  0.43779132    -0.67200
O73         O  0.56027437  0.51564091  0.30696220    -0.79500
C74         C  0.55860784  0.55988777  0.36595819     0.83900
O75         O  0.56512272  0.54654868  0.35299356    -0.66700
Ni76       Ni  0.56400287  0.47166648  0.34416719     1.27400
Ni77       Ni  0.56064095  0.49429439  0.42657782     1.26100
H78         H  0.57091681  0.52484206  0.42109659     0.38400
O79         O  0.55290634  0.55736624  0.89356855    -0.81500
O80         O  0.55919681  0.46688457  0.93510986    -0.66200
O81         O  0.56402288  0.52216960  0.91472846    -1.12800
C82         C  0.55883281  0.50077811  0.78596189     1.05400
O83         O  0.57090603  0.46027186  0.88873087    -0.79400
O84         O  0.57876298  0.48364654  0.83357380    -0.67000
Ni85       Ni  0.55523668  0.54193292  0.93924721     1.34900
C86         C  0.58347995  0.50007230  0.84167736     0.84100
O87         O  0.56447942  0.49842104  0.97956570    -0.79900
O88         O  0.55724647  0.52906043  0.98757863    -0.90200
C89         C  0.56485565  0.45434909  0.91607187     0.83700
O90         O  0.54086921  0.52932560  0.93274789    -0.68400
O91         O  0.55849127  0.48302784  0.79875432    -0.87700
C92         C  0.53822556  0.51128559  0.93906670     0.84500
C93         C  0.56137628  0.51290070  0.00065244     1.06100
H94         H  0.54998197  0.49204230  0.87007320     0.37900
O95         O  0.55804586  0.49308700  0.87333894    -1.10400
O96         O  0.57816072  0.51449623  0.85665209    -0.67000
Ni97       Ni  0.56219788  0.51958447  0.86110529     1.26300
O98         O  0.54544080  0.49731200  0.93835646    -0.67200
O99         O  0.56050450  0.51605777  0.80697574    -0.79500
C100        C  0.55976967  0.56068884  0.86643530     0.83900
O101        O  0.56570287  0.54682410  0.85239737    -0.66700
Ni102      Ni  0.56445498  0.47211515  0.84461224     1.27400
Ni103      Ni  0.56128445  0.49490294  0.92663534     1.26100
H104        H  0.57181991  0.52507551  0.92044819     0.38400
O105        O  0.69646975  0.70307906  0.39726193    -0.81500
O106        O  0.69246281  0.79373536  0.43787640    -0.66200
O107        O  0.68567299  0.73888232  0.41745308    -1.12800
C108        C  0.69088987  0.75961149  0.28871004     1.05400
O109        O  0.68048837  0.80153122  0.39310043    -0.79400
O110        O  0.67105544  0.77820615  0.34080945    -0.67000
Ni111      Ni  0.69339080  0.71805459  0.44290882     1.34900
C112        C  0.66643577  0.76142675  0.34651759     0.84100
O113        O  0.68635417  0.76293563  0.48259438    -0.79900
O114        O  0.69088973  0.73074703  0.49101858    -0.90200
C115        C  0.68715974  0.80686946  0.41919351     0.83700
O116        O  0.70820778  0.72900316  0.44092629    -0.68400
O117        O  0.69059193  0.77740152  0.30129214    -0.87700
C118        C  0.71160851  0.74685082  0.44405807     0.84500
C119        C  0.68819383  0.74788480  0.50381671     1.06100
H120        H  0.70026633  0.76833839  0.37203165     0.37900
O121        O  0.69221813  0.76746776  0.37587615    -1.10400
O122        O  0.67189428  0.74631822  0.35800789    -0.67000
Ni123      Ni  0.68778643  0.74095857  0.36378871     1.26300
O124        O  0.70512113  0.76174946  0.43977431    -0.67200
O125        O  0.68985056  0.74421294  0.30981779    -0.79500
C126        C  0.68998810  0.69976024  0.36917074     0.83900
O127        O  0.68406105  0.71361018  0.35503955    -0.66700
Ni128      Ni  0.68577808  0.78882302  0.34813361     1.27400
Ni129      Ni  0.68931963  0.76591581  0.42939670     1.26100
H130        H  0.67775177  0.73698828  0.42272345     0.38400
O131        O  0.69846971  0.70467057  0.89411738    -0.81500
O132        O  0.69323621  0.79472313  0.93803159    -0.66200
O133        O  0.68740828  0.73972046  0.91644739    -1.12800
C134        C  0.69255287  0.76182671  0.78827898     1.05400
O135        O  0.68115310  0.80148047  0.89294836    -0.79400
O136        O  0.67284704  0.77898015  0.83671470    -0.67000
Ni137      Ni  0.69556398  0.71905678  0.94056618     1.34900
C138        C  0.66811936  0.76237631  0.84328225     0.84100
O139        O  0.68773971  0.76307181  0.98231734    -0.79900
O140        O  0.69317996  0.73120177  0.98930547    -0.90200
C141        C  0.68761617  0.80741875  0.91919281     0.83700
O142        O  0.71018576  0.73071022  0.93740045    -0.68400
O143        O  0.69296818  0.77951669  0.80141929    -0.87700
C144        C  0.71335393  0.74860531  0.94191059     0.84500
C145        C  0.68997281  0.74789793  0.00289422     1.06100
H146        H  0.70170438  0.76967074  0.87195873     0.37900
O147        O  0.69365100  0.76876551  0.87564411    -1.10400
O148        O  0.67335710  0.74777747  0.85792907    -0.67000
Ni149      Ni  0.68928568  0.74245254  0.86285501     1.26300
O150        O  0.70659970  0.76327875  0.93959051    -0.67200
O151        O  0.69105232  0.74638290  0.80898284    -0.79500
C152        C  0.69176181  0.70141142  0.86660068     0.83900
O153        O  0.68563214  0.71521769  0.85336718    -0.66700
Ni154      Ni  0.68726996  0.79010234  0.84793294     1.27400
Ni155      Ni  0.69069637  0.76674997  0.92913866     1.26100
H156        H  0.67953962  0.73738235  0.92197126     0.38400
O157        O  0.55273657  0.70293373  0.23313468    -0.81500
O158        O  0.55814970  0.79246856  0.18731821    -0.66200
O159        O  0.56411509  0.73757649  0.20993450    -1.12800
C160        C  0.55877597  0.76002821  0.33778671     1.05400
O161        O  0.57010271  0.79997775  0.23240513    -0.79400
O162        O  0.57878651  0.77748102  0.28786353    -0.67000
Ni163      Ni  0.55594730  0.71666213  0.18620174     1.34900
C164        C  0.58347123  0.76081778  0.28182602     0.84100
O165        O  0.56372808  0.76045606  0.14371023    -0.79900
O166        O  0.55862069  0.72827996  0.13716341    -0.90200
C167        C  0.56352344  0.80554512  0.20623521     0.83700
O168        O  0.54129166  0.72824163  0.18761569    -0.68400
O169        O  0.55880788  0.77769635  0.32452585    -0.87700
C170        C  0.53824412  0.74615856  0.18297411     0.84500
C171        C  0.56165862  0.74505838  0.12337691     1.06100
H172        H  0.54984014  0.76763998  0.25398295     0.37900
O173        O  0.55789307  0.76677266  0.25031585    -1.10400
O174        O  0.57816861  0.74592015  0.26836186    -0.67000
Ni175      Ni  0.56222757  0.74047387  0.26348542     1.26300
O176        O  0.54499748  0.76081175  0.18634600    -0.67200
O177        O  0.56031622  0.74448963  0.31736689    -0.79500
C178        C  0.55950433  0.69952505  0.26037582     0.83900
O179        O  0.56582444  0.71323258  0.27324554    -0.66700
Ni180      Ni  0.56427475  0.78833733  0.27769642     1.27400
Ni181      Ni  0.56083253  0.76451527  0.19681927     1.26100
H182        H  0.57198349  0.73527723  0.20444827     0.38400
O183        O  0.55442649  0.70218719  0.72972375    -0.81500
O184        O  0.55913012  0.79339165  0.69038934    -0.66200
O185        O  0.56497241  0.73811672  0.70841183    -1.12800
C186        C  0.56082733  0.75849188  0.83820061     1.05400
O187        O  0.57148547  0.80007700  0.73467626    -0.79400
O188        O  0.58043535  0.77670980  0.78779263    -0.67000
Ni189      Ni  0.55594256  0.71826914  0.68463907     1.34900
C190        C  0.58514176  0.76035737  0.77940910     0.84100
O191        O  0.56407941  0.76247440  0.64392486    -0.79900
O192        O  0.55687379  0.73174974  0.63662882    -0.90200
C193        C  0.56473598  0.80606365  0.70940549     0.83700
O194        O  0.54162788  0.73014122  0.69458213    -0.68400
O195        O  0.56069077  0.77637186  0.82605084    -0.87700
C196        C  0.53876134  0.74804948  0.68855165     0.84500
C197        C  0.56050206  0.74818996  0.62311005     1.06100
H198        H  0.55127350  0.76752281  0.75592488     0.37900
O199        O  0.55928944  0.76671882  0.75139478    -1.10400
O200        O  0.57971716  0.74568327  0.76550039    -0.67000
Ni201      Ni  0.56369444  0.74025027  0.76240818     1.26300
O202        O  0.54583336  0.76230294  0.68857433    -0.67200
O203        O  0.56233527  0.74336344  0.81669737    -0.79500
C204        C  0.56131756  0.69906817  0.75676021     0.83900
O205        O  0.56735557  0.71297765  0.77034289    -0.66700
Ni206      Ni  0.56589138  0.78776845  0.77957908     1.27400
Ni207      Ni  0.56176252  0.76540815  0.69760219     1.26100
H208        H  0.57271978  0.73554137  0.70158647     0.38400
O209        O  0.69665421  0.05813644  0.48596865    -0.81500
O210        O  0.69245176  0.96766363  0.44608607    -0.66200
O211        O  0.68595863  0.02270689  0.46427426    -1.12800
C212        C  0.69086987  0.00330494  0.59394732     1.05400
O213        O  0.68066756  0.96041154  0.49196953    -0.79400
O214        O  0.67181423  0.98363463  0.54552524    -0.67000
Ni215      Ni  0.69421232  0.04320972  0.43995213     1.34900
C216        C  0.66669562  0.99954440  0.53688981     0.84100
O217        O  0.68682034  0.99846988  0.39978209    -0.79900
O218        O  0.69227899  0.03033757  0.39177226    -0.90200
C219        C  0.68701603  0.95477180  0.46519849     0.83700
O220        O  0.70890563  0.03205859  0.44477360    -0.68400
O221        O  0.69180973  0.98549421  0.58176580    -0.87700
C222        C  0.71213431  0.01419352  0.44078938     0.84500
C223        C  0.68922519  0.01341549  0.37869660     1.06100
H224        H  0.70044501  0.99450384  0.51096920     0.37900
O225        O  0.69238934  0.99472356  0.50702303    -1.10400
O226        O  0.67166279  0.01442275  0.52195992    -0.67000
Ni227      Ni  0.68748303  0.02097747  0.51808240     1.26300
O228        O  0.70541727  0.99945587  0.44331081    -0.67200
O229        O  0.68893132  0.01821476  0.57236518    -0.79500
C230        C  0.68958805  0.06186684  0.51217793     0.83900
O231        O  0.68334158  0.04817834  0.52552520    -0.66700
Ni232      Ni  0.68648071  0.97343356  0.53600381     1.27400
Ni233      Ni  0.68956194  0.99564859  0.45335973     1.26100
H234        H  0.67812107  0.02473016  0.45795494     0.38400
O235        O  0.69794955  0.05706447  0.98898760    -0.81500
O236        O  0.69239067  0.96831511  0.94290288    -0.66200
O237        O  0.68648013  0.02302618  0.96507853    -1.12800
C238        C  0.69144574  0.00098528  0.09328835     1.05400
O239        O  0.68043485  0.96097108  0.98808018    -0.79400
O240        O  0.67178714  0.98323380  0.04356528    -0.67000
Ni241      Ni  0.69473734  0.04382419  0.94166222     1.34900
C242        C  0.66698518  0.99964956  0.03641710     0.84100
O243        O  0.68687425  0.00018736  0.89911347    -0.79900
O244        O  0.69194911  0.03239816  0.89255515    -0.90200
C245        C  0.68695653  0.95536392  0.96179191     0.83700
O246        O  0.70938233  0.03214468  0.94257756    -0.68400
O247        O  0.69177939  0.98331027  0.08005208    -0.87700
C248        C  0.71238929  0.01417672  0.93831205     0.84500
C249        C  0.68883956  0.01563159  0.87881660     1.06100
H250        H  0.70071745  0.99328456  0.00958701     0.37900
O251        O  0.69266534  0.99401922  0.00579494    -1.10400
O252        O  0.67224915  0.01450523  0.02266815    -0.67000
Ni253      Ni  0.68817429  0.02022015  0.01865495     1.26300
O254        O  0.70558703  0.99963768  0.94189827    -0.67200
O255        O  0.68983317  0.01639736  0.07265875    -0.79500
C256        C  0.69086142  0.06086890  0.01508693     0.83900
O257        O  0.68443165  0.04733685  0.02786373    -0.66700
Ni258      Ni  0.68632113  0.97253957  0.03330922     1.27400
Ni259      Ni  0.68975048  0.99616430  0.95223458     1.26100
H260        H  0.67863503  0.02535619  0.95927893     0.38400
O261        O  0.55285756  0.05690959  0.14464910    -0.81500
O262        O  0.55848918  0.96722300  0.18971456    -0.66200
O263        O  0.56436401  0.02229708  0.16741807    -1.12800
C264        C  0.55920211  0.99992843  0.03945257     1.05400
O265        O  0.57037769  0.96025146  0.14436727    -0.79400
O266        O  0.57889401  0.98265019  0.08902761    -0.67000
Ni267      Ni  0.55633451  0.04315181  0.19151230     1.34900
C268        C  0.58363647  0.99923399  0.09564701     0.84100
O269        O  0.56421417  0.99929123  0.23359496    -0.79900
O270        O  0.55939738  0.03156893  0.24032645    -0.90200
C271        C  0.56379171  0.95433712  0.17020168     0.83700
O272        O  0.54167514  0.03130285  0.19131519    -0.68400
O273        O  0.55888742  0.98228245  0.05270891    -0.87700
C274        C  0.53858844  0.01330304  0.19519674     0.84500
C275        C  0.56244939  0.01478638  0.25398435     1.06100
H276        H  0.55002261  0.99219402  0.12350237     0.37900
O277        O  0.55808299  0.99312425  0.12698918    -1.10400
O278        O  0.57832983  0.01413573  0.10892654    -0.67000
Ni279      Ni  0.56239918  0.01947774  0.11390312     1.26300
O280        O  0.54532731  0.99873256  0.19129422    -0.67200
O281        O  0.56058866  0.01546006  0.06004681    -0.79500
C282        C  0.55955260  0.06041899  0.11715741     0.83900
O283        O  0.56592269  0.04682087  0.10428513    -0.66700
Ni284      Ni  0.56440999  0.97168295  0.09931748     1.27400
Ni285      Ni  0.56114715  0.99527781  0.18047704     1.26100
H286        H  0.57224551  0.02464878  0.17271717     0.38400
O287        O  0.55379127  0.05741639  0.64907371    -0.81500
O288        O  0.55767464  0.96679761  0.68804164    -0.66200
O289        O  0.56442211  0.02158924  0.66891580    -1.12800
C290        C  0.55910864  0.00196211  0.53932763     1.05400
O291        O  0.56929125  0.95924386  0.64188699    -0.79400
O292        O  0.57845104  0.98240812  0.58921723    -0.67000
Ni293      Ni  0.55681621  0.04240775  0.69460682     1.34900
C294        C  0.58341080  0.99863031  0.59710156     0.84100
O295        O  0.56392309  0.99738969  0.73346490    -0.79900
O296        O  0.55947701  0.02962817  0.74232486    -0.90200
C297        C  0.56290086  0.95381480  0.66869979     0.83700
O298        O  0.54192813  0.03151741  0.69325430    -0.68400
O299        O  0.55863822  0.98407026  0.55134050    -0.87700
C300        C  0.53853995  0.01363032  0.69612971     0.84500
C301        C  0.56223920  0.01248779  0.75485175     1.06100
H302        H  0.54959665  0.99295530  0.62309409     0.37900
O303        O  0.55766609  0.99343136  0.62665291    -1.10400
O304        O  0.57825157  0.01366708  0.61042720    -0.67000
Ni305      Ni  0.56242075  0.01975058  0.61527570     1.26300
O306        O  0.54502439  0.99877562  0.69128057    -0.67200
O307        O  0.56062801  0.01697107  0.56110535    -0.79500
C308        C  0.56046625  0.06071172  0.62147385     0.83900
O309        O  0.56639556  0.04686502  0.60737493    -0.66700
Ni310      Ni  0.56369953  0.97218816  0.59761733     1.27400
Ni311      Ni  0.56076792  0.99461116  0.68021070     1.26100
H312        H  0.57233884  0.02340308  0.67436678     0.38400
O313        O  0.69779718  0.20383849  0.14568075    -0.81500
O314        O  0.69395249  0.29345913  0.18647924    -0.66200
O315        O  0.68683455  0.23876892  0.16728608    -1.12800
C316        C  0.69215595  0.25916111  0.03819479     1.05400
O317        O  0.68158566  0.30053452  0.14251072    -0.79400
O318        O  0.67235310  0.27799834  0.08830862    -0.67000
Ni319      Ni  0.69445882  0.21770775  0.19224377     1.34900
C320        C  0.66749425  0.26158990  0.09542503     0.84100
O321        O  0.68845238  0.26253566  0.23235482    -0.79900
O322        O  0.69165181  0.22971237  0.24089662    -0.90200
C323        C  0.68839948  0.30632042  0.16785305     0.83700
O324        O  0.70932857  0.22857191  0.19220700    -0.68400
O325        O  0.69219652  0.27695144  0.05093918    -0.87700
C326        C  0.71287194  0.24640136  0.19314737     0.84500
C327        C  0.68973244  0.24722298  0.25352311     1.06100
H328        H  0.70134126  0.26759487  0.12060473     0.37900
O329        O  0.69331064  0.26700042  0.12500585    -1.10400
O330        O  0.67274186  0.24661904  0.10863400    -0.67000
Ni331      Ni  0.68863511  0.24074102  0.11341938     1.26300
O332        O  0.70654145  0.26130680  0.18720996    -0.67200
O333        O  0.69058646  0.24381517  0.05914964    -0.79500
C334        C  0.69090494  0.20006462  0.11896151     0.83900
O335        O  0.68466854  0.21359920  0.10540761    -0.66700
Ni336      Ni  0.68706211  0.28835756  0.09735031     1.27400
Ni337      Ni  0.69074880  0.26561391  0.17872414     1.26100
H338        H  0.67892652  0.23711546  0.17304811     0.38400
O339        O  0.69723670  0.20461505  0.64550887    -0.81500
O340        O  0.69377047  0.29419624  0.68846912    -0.66200
O341        O  0.68623775  0.23983888  0.66660218    -1.12800
C342        C  0.69203172  0.26119350  0.53850160     1.05400
O343        O  0.68161984  0.30243322  0.64440619    -0.79400
O344        O  0.67184233  0.27989733  0.59137220    -0.67000
Ni345      Ni  0.69326303  0.21819817  0.69195722     1.34900
C346        C  0.66723578  0.26300845  0.59583523     0.84100
O347        O  0.68782376  0.26292457  0.73268593    -0.79900
O348        O  0.68975966  0.22973000  0.74047918    -0.90200
C349        C  0.68845961  0.30752687  0.67022134     0.83700
O350        O  0.70820106  0.22869729  0.69521403    -0.68400
O351        O  0.69131405  0.27889233  0.55145705    -0.87700
C352        C  0.71209127  0.24632414  0.69539843     0.84500
C353        C  0.68833213  0.24731658  0.75340748     1.06100
H354        H  0.70107429  0.26931606  0.62156408     0.37900
O355        O  0.69303742  0.26848226  0.62569399    -1.10400
O356        O  0.67270709  0.24772410  0.60637274    -0.67000
Ni357      Ni  0.68855608  0.24215674  0.61301033     1.26300
O358        O  0.70609613  0.26152014  0.68803866    -0.67200
O359        O  0.69105169  0.24561081  0.55918441    -0.79500
C360        C  0.69060436  0.20119368  0.61789185     0.83900
O361        O  0.68467429  0.21501034  0.60383059    -0.66700
Ni362      Ni  0.68666085  0.29009864  0.59873857     1.27400
Ni363      Ni  0.69033569  0.26649260  0.67931318     1.26100
H364        H  0.67825667  0.23848666  0.67142118     0.38400
O365        O  0.55421759  0.20185474  0.48327536    -0.81500
O366        O  0.55889980  0.29240998  0.44052696    -0.66200
O367        O  0.56481254  0.23746232  0.46168229    -1.12800
C368        C  0.55943361  0.25901423  0.59027421     1.05400
O369        O  0.57048503  0.29996925  0.48681091    -0.79400
O370        O  0.57890778  0.27722779  0.54219291    -0.67000
Ni371      Ni  0.55645105  0.21697787  0.43739856     1.34900
C372        C  0.58391868  0.26105059  0.53447994     0.84100
O373        O  0.56471072  0.26098038  0.39636619    -0.79900
O374        O  0.55826911  0.22969373  0.38896989    -0.90200
C375        C  0.56423482  0.30542569  0.45965452     0.83700
O376        O  0.54181938  0.22844904  0.44308441    -0.68400
O377        O  0.55863395  0.27664954  0.57722333    -0.87700
C378        C  0.53881765  0.24626406  0.43675558     0.84500
C379        C  0.56187986  0.24617902  0.37556348     1.06100
H380        H  0.55028057  0.26677100  0.50609326     0.37900
O381        O  0.55835600  0.26626479  0.50275504    -1.10400
O382        O  0.57887038  0.24621663  0.51965522    -0.67000
Ni383      Ni  0.56299197  0.24007499  0.51536224     1.26300
O384        O  0.54572097  0.26080888  0.43790551    -0.67200
O385        O  0.56134654  0.24375007  0.56948212    -0.79500
C386        C  0.56104763  0.19885735  0.51053576     0.83900
O387        O  0.56688056  0.21296372  0.52447367    -0.66700
Ni388      Ni  0.56435918  0.28778524  0.53116733     1.27400
Ni389      Ni  0.56153673  0.26449111  0.44937002     1.26100
H390        H  0.57266009  0.23510633  0.45595264     0.38400
O391        O  0.55327039  0.20391007  0.98264022    -0.81500
O392        O  0.55907063  0.29417823  0.94299011    -0.66200
O393        O  0.56467145  0.23893713  0.96164225    -1.12800
C394        C  0.55938881  0.25910921  0.09085984     1.05400
O395        O  0.57093800  0.30065520  0.98900636    -0.79400
O396        O  0.57913600  0.27742842  0.04356606    -0.67000
Ni397      Ni  0.55634811  0.21870305  0.93665092     1.34900
C398        C  0.58404641  0.26124245  0.03536197     0.84100
O399        O  0.56447146  0.26320919  0.89710485    -0.79900
O400        O  0.55895906  0.23139056  0.88845938    -0.90200
C401        C  0.56467478  0.30670744  0.96241059     0.83700
O402        O  0.54175231  0.23051455  0.93959451    -0.68400
O403        O  0.55889729  0.27690425  0.07841133    -0.87700
C404        C  0.53879960  0.24850650  0.93514878     0.84500
C405        C  0.56222054  0.24829198  0.87576344     1.06100
H406        H  0.55040303  0.26799498  0.00745394     0.37900
O407        O  0.55846714  0.26731641  0.00391462    -1.10400
O408        O  0.57887117  0.24656364  0.02033434    -0.67000
Ni409      Ni  0.56289710  0.24087823  0.01539000     1.26300
O410        O  0.54563848  0.26300942  0.93900121    -0.67200
O411        O  0.56115247  0.24396086  0.06958887    -0.79500
C412        C  0.56003299  0.20002837  0.00972751     0.83900
O413        O  0.56647326  0.21344098  0.02318603    -0.66700
Ni414      Ni  0.56469085  0.28835899  0.03291703     1.27400
Ni415      Ni  0.56149575  0.26613022  0.95041377     1.26100
H416        H  0.57251884  0.23661243  0.95586240     0.38400
O417        O  0.93372882  0.55190540  0.36417680    -0.81500
O418        O  0.93395654  0.46256179  0.40625064    -0.66200
O419        O  0.94300418  0.51608885  0.38601290    -1.12800
C420        C  0.93706396  0.49616063  0.25714233     1.05400
O421        O  0.94524448  0.45178110  0.36095586    -0.79400
O422        O  0.95581902  0.47439578  0.30779121    -0.67000
Ni423      Ni  0.93592595  0.53786678  0.41067359     1.34900
C424        C  0.96113928  0.49062009  0.31287666     0.84100
O425        O  0.94074994  0.49272018  0.45135947    -0.79900
O426        O  0.93755279  0.52547096  0.45926141    -0.90200
C427        C  0.93904881  0.44839769  0.38966957     0.83700
O428        O  0.92080239  0.52882734  0.40690033    -0.68400
O429        O  0.93625237  0.47841502  0.26975668    -0.87700
C430        C  0.91652264  0.51155619  0.40814128     0.84500
C431        C  0.93945490  0.50809722  0.47236510     1.06100
H432        H  0.92736167  0.48887344  0.33984487     0.37900
O433        O  0.93540036  0.48844789  0.34409460    -1.10400
O434        O  0.95654282  0.50614218  0.32659395    -0.67000
Ni435      Ni  0.94108464  0.51424849  0.33213448     1.26300
O436        O  0.92238555  0.49577995  0.40600310    -0.67200
O437        O  0.93904920  0.51130026  0.27819122    -0.79500
C438        C  0.94146187  0.55542524  0.34035270     0.83900
O439        O  0.94638508  0.54104030  0.32387055    -0.66700
Ni440      Ni  0.94061191  0.46604670  0.31637082     1.27400
Ni441      Ni  0.93810092  0.48978169  0.39773288     1.26100
H442        H  0.95095211  0.51695703  0.39176712     0.38400
O443        O  0.93259715  0.55158053  0.86310776    -0.81500
O444        O  0.93407482  0.46250994  0.90805634    -0.66200
O445        O  0.94238231  0.51616431  0.88576982    -1.12800
C446        C  0.93676081  0.49492836  0.75762013     1.05400
O447        O  0.94540106  0.45150979  0.86306974    -0.79400
O448        O  0.95581023  0.47418905  0.80995546    -0.67000
Ni449      Ni  0.93498204  0.53780233  0.90987311     1.34900
C450        C  0.96084327  0.49076794  0.81392168     0.84100
O451        O  0.94057931  0.49322898  0.95173872    -0.79900
O452        O  0.93673137  0.52578709  0.95881045    -0.90200
C453        C  0.93942578  0.44837508  0.89242712     0.83700
O454        O  0.92002317  0.52803194  0.90578479    -0.68400
O455        O  0.93638114  0.47719624  0.77059761    -0.87700
C456        C  0.91596211  0.51061363  0.90745687     0.84500
C457        C  0.93900766  0.50864715  0.97233129     1.06100
H458        H  0.92707719  0.48774702  0.84067879     0.37900
O459        O  0.93512219  0.48777231  0.84488135    -1.10400
O460        O  0.95596459  0.50634526  0.82626996    -0.67000
Ni461      Ni  0.94039231  0.51376397  0.83206164     1.26300
O462        O  0.92204147  0.49506728  0.90659752    -0.67200
O463        O  0.93829425  0.51031268  0.77838885    -0.79500
C464        C  0.94014824  0.55511090  0.83862105     0.83900
O465        O  0.94526413  0.54073385  0.82277923    -0.66700
Ni466      Ni  0.94069442  0.46534932  0.81793587     1.27400
Ni467      Ni  0.93785524  0.48974262  0.89839678     1.26100
H468        H  0.95032390  0.51744685  0.89135057     0.38400
O469        O  0.81747437  0.55371044  0.01090910    -0.81500
O470        O  0.81425373  0.46528433  0.96649708    -0.66200
O471        O  0.80675794  0.51924051  0.98878911    -1.12800
C472        C  0.81194420  0.49733039  0.11661436     1.05400
O473        O  0.80192894  0.45547984  0.00941074    -0.79400
O474        O  0.79165608  0.47861803  0.06227152    -0.67000
Ni475      Ni  0.81428630  0.54068250  0.96408301     1.34900
C476        C  0.78759749  0.49605628  0.06080049     0.84100
O477        O  0.80866226  0.49631191  0.92235509    -0.79900
O478        O  0.81180171  0.52913432  0.91519147    -0.90200
C479        C  0.80849180  0.45155159  0.98191825     0.83700
O480        O  0.82912850  0.53033929  0.96541250    -0.68400
O481        O  0.81087666  0.47970941  0.10338777    -0.87700
C482        C  0.83303170  0.51282148  0.96585656     0.84500
C483        C  0.80993117  0.51181036  0.90173740     1.06100
H484        H  0.82125196  0.48934393  0.03436873     0.37900
O485        O  0.81325404  0.49034956  0.02964043    -1.10400
O486        O  0.79323987  0.51113768  0.05005158    -0.67000
Ni487      Ni  0.80894984  0.51677735  0.04262010     1.26300
O488        O  0.82683820  0.49744561  0.96925202    -0.67200
O489        O  0.81137596  0.51305678  0.09619058    -0.79500
C490        C  0.80992729  0.55797308  0.03482742     0.83900
O491        O  0.80482671  0.54403961  0.05205848    -0.66700
Ni492      Ni  0.80656393  0.46848169  0.05547833     1.27400
Ni493      Ni  0.81089685  0.49267275  0.97599188     1.26100
H494        H  0.79880542  0.52071048  0.98364590     0.38400
O495        O  0.81613783  0.55494388  0.50984303    -0.81500
O496        O  0.81514043  0.46455079  0.46878361    -0.66200
O497        O  0.80717297  0.51861949  0.48782459    -1.12800
C498        C  0.81272626  0.49848051  0.61694190     1.05400
O499        O  0.80342579  0.45500215  0.51384262    -0.79400
O500        O  0.79386918  0.47765097  0.56888677    -0.67000
Ni501      Ni  0.81528660  0.53961441  0.46413345     1.34900
C502        C  0.78853083  0.49361305  0.56209101     0.84100
O503        O  0.80917361  0.49483158  0.42310206    -0.79900
O504        O  0.81508213  0.52637282  0.41576014    -0.90200
C505        C  0.80957940  0.45092910  0.48540057     0.83700
O506        O  0.82991820  0.52979128  0.47500802    -0.68400
O507        O  0.81389241  0.48081872  0.60415836    -0.87700
C508        C  0.83381754  0.51238776  0.47104193     0.84500
C509        C  0.81212279  0.50951363  0.40227958     1.06100
H510        H  0.82221989  0.49119644  0.53474292     0.37900
O511        O  0.81418999  0.49081520  0.53028330    -1.10400
O512        O  0.79307916  0.50856283  0.54594586    -0.67000
Ni513      Ni  0.80863631  0.51660293  0.54186017     1.26300
O514        O  0.82751560  0.49708128  0.46865410    -0.67200
O515        O  0.81030069  0.51346660  0.59602761    -0.79500
C516        C  0.80828261  0.55793634  0.53353615     0.83900
O517        O  0.80341255  0.54336929  0.54975649    -0.66700
Ni518      Ni  0.80880460  0.46865376  0.55816539     1.27400
Ni519      Ni  0.81161775  0.49200941  0.47668335     1.26100
H520        H  0.79931881  0.52009954  0.48118655     0.38400
O521        O  0.93299631  0.20475423  0.01868818    -0.81500
O522        O  0.93418124  0.29468587  0.97972829    -0.66200
O523        O  0.94241811  0.24069868  0.99743671    -1.12800
C524        C  0.93786778  0.26002319  0.12723434     1.05400
O525        O  0.94618030  0.30465840  0.02365815    -0.79400
O526        O  0.95672324  0.28114293  0.07503488    -0.67000
Ni527      Ni  0.93469986  0.21952297  0.97273321     1.34900
C528        C  0.96168331  0.26471675  0.06898207     0.84100
O529        O  0.94005448  0.26482765  0.93320638    -0.79900
O530        O  0.93585893  0.23249947  0.92451975    -0.90200
C531        C  0.93981179  0.30845057  0.99560999     0.83700
O532        O  0.91980421  0.22917658  0.97949605    -0.68400
O533        O  0.93742181  0.27788413  0.11504529    -0.87700
C534        C  0.91580208  0.24663889  0.97876148     0.84500
C535        C  0.93814754  0.24982219  0.91181553     1.06100
H536        H  0.92768097  0.26834632  0.04593461     0.37900
O537        O  0.93568070  0.26838112  0.04084086    -1.10400
O538        O  0.95664359  0.24948169  0.05575219    -0.67000
Ni539      Ni  0.94098752  0.24225117  0.05153533     1.26300
O540        O  0.92197772  0.26213014  0.98013396    -0.67200
O541        O  0.93941813  0.24489366  0.10576634    -0.79500
C542        C  0.94093303  0.20111670  0.04165830     0.83900
O543        O  0.94594594  0.21531386  0.05849276    -0.66700
Ni544      Ni  0.94163244  0.29032972  0.06835483     1.27400
Ni545      Ni  0.93788599  0.26731291  0.98703333     1.26100
H546        H  0.95029277  0.23950421  0.99085582     0.38400
O547        O  0.93363876  0.20502586  0.52213372    -0.81500
O548        O  0.93468673  0.29391866  0.47644358    -0.66200
O549        O  0.94305952  0.24048777  0.49893398    -1.12800
C550        C  0.93704515  0.26213697  0.62678229     1.05400
O551        O  0.94601753  0.30498724  0.52144851    -0.79400
O552        O  0.95601702  0.28288514  0.57668023    -0.67000
Ni553      Ni  0.93566941  0.21868511  0.47509451     1.34900
C554        C  0.96130861  0.26666378  0.57183347     0.84100
O555        O  0.94128880  0.26318078  0.43289683    -0.79900
O556        O  0.93729525  0.23061966  0.42601738    -0.90200
C557        C  0.94000885  0.30811770  0.49217353     0.83700
O558        O  0.92060315  0.22815616  0.47917725    -0.68400
O559        O  0.93616407  0.27971712  0.61339805    -0.87700
C560        C  0.91657016  0.24555869  0.47660256     0.84500
C561        C  0.93970245  0.24770771  0.41239005     1.06100
H562        H  0.92761544  0.26843363  0.54368617     0.37900
O563        O  0.93566486  0.26875645  0.53961255    -1.10400
O564        O  0.95671470  0.25116679  0.55777771    -0.67000
Ni565      Ni  0.94119143  0.24308268  0.55271825     1.26300
O566        O  0.92270081  0.26111072  0.47762376    -0.67200
O567        O  0.93921184  0.24679928  0.60649891    -0.79500
C568        C  0.94151997  0.20182553  0.54558172     0.83900
O569        O  0.94634973  0.21637078  0.56203084    -0.66700
Ni570      Ni  0.94095272  0.29142496  0.56650199     1.27400
Ni571      Ni  0.93848001  0.26675206  0.48617575     1.26100
H572        H  0.95099285  0.23931164  0.49319084     0.38400
O573        O  0.81719063  0.20652969  0.36355559    -0.81500
O574        O  0.81597336  0.29625223  0.40451638    -0.66200
O575        O  0.80778979  0.24226949  0.38551990    -1.12800
C576        C  0.81297612  0.26185438  0.25611680     1.05400
O577        O  0.80439232  0.30608361  0.35930879    -0.79400
O578        O  0.79444317  0.28297249  0.30594687    -0.67000
Ni579      Ni  0.81535963  0.22102856  0.40988043     1.34900
C580        C  0.78916355  0.26687290  0.31242711     0.84100
O581        O  0.80975712  0.26616140  0.45022671    -0.79900
O582        O  0.81399130  0.23382493  0.45830374    -0.90200
C583        C  0.81033778  0.30988217  0.38843889     0.83700
O584        O  0.83030035  0.23076985  0.40385517    -0.68400
O585        O  0.81410617  0.27959812  0.26859516    -0.87700
C586        C  0.83431481  0.24822546  0.40598233     0.84500
C587        C  0.81155233  0.25102511  0.47133817     1.06100
H588        H  0.82295477  0.26964756  0.33850500     0.37900
O589        O  0.81492247  0.26993423  0.34293490    -1.10400
O590        O  0.79379614  0.25173360  0.32739453    -0.67000
Ni591      Ni  0.80935435  0.24399165  0.33157751     1.26300
O592        O  0.82818129  0.26372178  0.40504597    -0.67200
O593        O  0.81094250  0.24684698  0.27742036    -0.79500
C594        C  0.80929787  0.20284397  0.34034208     0.83900
O595        O  0.80421228  0.21708802  0.32402103    -0.66700
Ni596      Ni  0.80946069  0.29199300  0.31497153     1.27400
Ni597      Ni  0.81233233  0.26883991  0.39660281     1.26100
H598        H  0.79989662  0.24101757  0.39185256     0.38400
O599        O  0.81824990  0.20754170  0.86285687    -0.81500
O600        O  0.81473242  0.29594270  0.90635735    -0.66200
O601        O  0.80750369  0.24179073  0.88464177    -1.12800
C602        C  0.81432159  0.26256331  0.75674341     1.05400
O603        O  0.80354530  0.30539304  0.85979322    -0.79400
O604        O  0.79460793  0.28225943  0.80394138    -0.67000
Ni605      Ni  0.81482047  0.22051059  0.90963875     1.34900
C606        C  0.78955628  0.26577586  0.80900363     0.84100
O607        O  0.80836931  0.26496535  0.95051116    -0.79900
O608        O  0.81189971  0.23225199  0.95810850    -0.90200
C609        C  0.80937440  0.30953961  0.88904008     0.83700
O610        O  0.82968269  0.23096344  0.90943114    -0.68400
O611        O  0.81486088  0.28030025  0.76968404    -0.87700
C612        C  0.83351172  0.24854788  0.91097258     0.84500
C613        C  0.80952383  0.24945516  0.97127908     1.06100
H614        H  0.82287979  0.27026274  0.84076378     0.37900
O615        O  0.81479436  0.27007342  0.84396368    -1.10400
O616        O  0.79426745  0.25077282  0.82418734    -0.67000
Ni617      Ni  0.80988188  0.24393691  0.83106203     1.26300
O618        O  0.82732432  0.26387202  0.90768458    -0.67200
O619        O  0.81229171  0.24728965  0.77737532    -0.79500
C620        C  0.81072040  0.20297140  0.83895392     0.83900
O621        O  0.80539617  0.21675692  0.82208835    -0.66700
Ni622      Ni  0.80935475  0.29202832  0.81566697     1.27400
Ni623      Ni  0.81153458  0.26839610  0.89726706     1.26100
H624        H  0.79953307  0.24024938  0.88947178     0.38400
O625        O  0.93364738  0.70500847  0.26093421    -0.81500
O626        O  0.93642053  0.79402380  0.21886986    -0.66200
O627        O  0.94405661  0.74005474  0.23969143    -1.12800
C628        C  0.93774931  0.76026699  0.36804366     1.05400
O629        O  0.94764132  0.80428807  0.26498866    -0.79400
O630        O  0.95745231  0.78082917  0.31854347    -0.67000
Ni631      Ni  0.93664197  0.71871056  0.21453345     1.34900
C632        C  0.96237404  0.76420695  0.31411591     0.84100
O633        O  0.94263660  0.76347195  0.17412945    -0.79900
O634        O  0.93908628  0.73080649  0.16615831    -0.90200
C635        C  0.94167426  0.80790261  0.23584467     0.83700
O636        O  0.92172735  0.72885359  0.21639429    -0.68400
O637        O  0.93762635  0.77809640  0.35559270    -0.87700
C638        C  0.91778647  0.74636091  0.21595328     0.84500
C639        C  0.94132427  0.74808079  0.15313733     1.06100
H640        H  0.92885573  0.76835689  0.28496718     0.37900
O641        O  0.93691693  0.76821025  0.28114920    -1.10400
O642        O  0.95746392  0.74895903  0.30032057    -0.67000
Ni643      Ni  0.94183302  0.74202072  0.29338203     1.26300
O644        O  0.92397822  0.76175813  0.21898597    -0.67200
O645        O  0.93945079  0.74502399  0.34706793    -0.79500
C646        C  0.94119082  0.70090400  0.28505823     0.83900
O647        O  0.94637940  0.71492210  0.30186826    -0.66700
Ni648      Ni  0.94250728  0.79022734  0.30927187     1.27400
Ni649      Ni  0.93983411  0.76662889  0.22765939     1.26100
H650        H  0.95201532  0.73869911  0.23452982     0.38400
O651        O  0.93361728  0.70498228  0.76207368    -0.81500
O652        O  0.93528027  0.79410426  0.71930909    -0.66200
O653        O  0.94333159  0.74012042  0.73855581    -1.12800
C654        C  0.93899884  0.76069173  0.86785186     1.05400
O655        O  0.94745853  0.80374297  0.76281290    -0.79400
O656        O  0.95757051  0.78114575  0.81658852    -0.67000
Ni657      Ni  0.93536977  0.71884748  0.71517156     1.34900
C658        C  0.96270714  0.76487072  0.81082045     0.84100
O659        O  0.94096180  0.76352889  0.67354886    -0.79900
O660        O  0.93666842  0.73108968  0.66635278    -0.90200
C661        C  0.94100555  0.80778432  0.73512962     0.83700
O662        O  0.92047234  0.72887876  0.72110319    -0.68400
O663        O  0.93809097  0.77837616  0.85494868    -0.87700
C664        C  0.91657603  0.74641287  0.71953096     0.84500
C665        C  0.93904864  0.74821862  0.65287896     1.06100
H666        H  0.92875524  0.76798755  0.78638403     0.37900
O667        O  0.93674980  0.76811711  0.78120216    -1.10400
O668        O  0.95790760  0.74966456  0.79627615    -0.67000
Ni669      Ni  0.94218362  0.74217630  0.79268452     1.26300
O670        O  0.92287465  0.76176360  0.72057992    -0.67200
O671        O  0.94083536  0.74543989  0.84689980    -0.79500
C672        C  0.94173624  0.70103123  0.78412174     0.83900
O673        O  0.94708760  0.71513193  0.80021026    -0.66700
Ni674      Ni  0.94258093  0.79029595  0.80802729     1.27400
Ni675      Ni  0.93885272  0.76665925  0.72732890     1.26100
H676        H  0.95117031  0.73873742  0.73163088     0.38400
O677        O  0.81793857  0.70634431  0.11704105    -0.81500
O678        O  0.81591331  0.79665871  0.15685593    -0.66200
O679        O  0.80838966  0.74236901  0.13806866    -1.12800
C680        C  0.81433482  0.76159705  0.00880341     1.05400
O681        O  0.80486566  0.80629301  0.10991065    -0.79400
O682        O  0.79552631  0.78261883  0.05550586    -0.67000
Ni683      Ni  0.81643344  0.72168760  0.16264393     1.34900
C684        C  0.79015646  0.76657507  0.06187287     0.84100
O685        O  0.80965277  0.76651840  0.20238201    -0.79900
O686        O  0.81539401  0.73497508  0.21086433    -0.90200
C687        C  0.81056646  0.81023192  0.13953655     0.83700
O688        O  0.83113480  0.73202901  0.15373764    -0.68400
O689        O  0.81564192  0.77931101  0.02119026    -0.87700
C690        C  0.83485290  0.74960282  0.15756997     0.84500
C691        C  0.81212763  0.75178417  0.22370307     1.06100
H692        H  0.82365264  0.76978229  0.09195252     0.37900
O693        O  0.81558813  0.77008651  0.09563977    -1.10400
O694        O  0.79457751  0.75174869  0.07873297    -0.67000
Ni695      Ni  0.81016329  0.74409271  0.08422389     1.26300
O696        O  0.82843257  0.76470158  0.15899754    -0.67200
O697        O  0.81200341  0.74675390  0.03014277    -0.79500
C698        C  0.81028972  0.70293273  0.09270658     0.83900
O699        O  0.80517782  0.71722129  0.07666346    -0.66700
Ni700      Ni  0.81040818  0.79193422  0.06655973     1.27400
Ni701      Ni  0.81258645  0.76914417  0.14906252     1.26100
H702        H  0.80050278  0.74070260  0.14415157     0.38400
O703        O  0.81680714  0.70722246  0.61417057    -0.81500
O704        O  0.81448243  0.79602166  0.65841480    -0.66200
O705        O  0.80685402  0.74201108  0.63781739    -1.12800
C706        C  0.81234050  0.76284985  0.50919143     1.05400
O707        O  0.80290042  0.80570132  0.61302055    -0.79400
O708        O  0.79352110  0.78292979  0.55740486    -0.67000
Ni709      Ni  0.81462797  0.72076901  0.66133896     1.34900
C710        C  0.78820354  0.76682877  0.56367598     0.84100
O711        O  0.80858875  0.76521353  0.70333986    -0.79900
O712        O  0.81288875  0.73279590  0.71032962    -0.90200
C713        C  0.80890639  0.80962604  0.64195932     0.83700
O714        O  0.82950422  0.73107447  0.65670652    -0.68400
O715        O  0.81357522  0.78043795  0.52233577    -0.87700
C716        C  0.83339982  0.74861536  0.65889964     0.84500
C717        C  0.81033221  0.74982968  0.72391647     1.06100
H718        H  0.82182705  0.76995138  0.59187598     0.37900
O719        O  0.81378727  0.77014820  0.59616404    -1.10400
O720        O  0.79272024  0.75187756  0.57980795    -0.67000
Ni721      Ni  0.80835612  0.74427614  0.58390187     1.26300
O722        O  0.82712385  0.76394908  0.65813911    -0.67200
O723        O  0.80995090  0.74771045  0.52978027    -0.79500
C724        C  0.80889667  0.70319567  0.59122890     0.83900
O725        O  0.80346402  0.71727820  0.57561817    -0.66700
Ni726      Ni  0.80838302  0.79230158  0.56852822     1.27400
Ni727      Ni  0.81117044  0.76855031  0.64980093     1.26100
H728        H  0.79897402  0.74048369  0.64412598     0.38400
O729        O  0.93320899  0.05205521  0.11585213    -0.81500
O730        O  0.93486933  0.96251842  0.15583276    -0.66200
O731        O  0.94285090  0.01658654  0.13724071    -1.12800
C732        C  0.93690531  0.99722955  0.00809696     1.05400
O733        O  0.94642841  0.95317243  0.11013991    -0.79400
O734        O  0.95580501  0.97637197  0.05538716    -0.67000
Ni735      Ni  0.93543144  0.03779912  0.16214709     1.34900
C736        C  0.96108671  0.99248544  0.06186856     0.84100
O737        O  0.94119333  0.99264917  0.20175528    -0.79900
O738        O  0.93717440  0.02506933  0.21040262    -0.90200
C739        C  0.94055250  0.94905985  0.13929711     0.83700
O740        O  0.92047307  0.02802293  0.15753870    -0.68400
O741        O  0.93572846  0.97946249  0.02038762    -0.87700
C742        C  0.91642928  0.01058708  0.15941557     0.84500
C743        C  0.93958946  0.00779804  0.22309194     1.06100
H744        H  0.92748537  0.98927675  0.09078830     0.37900
O745        O  0.93553879  0.98901321  0.09476365    -1.10400
O746        O  0.95654706  0.00734439  0.07813360    -0.67000
Ni747      Ni  0.94101562  0.01494696  0.08339982     1.26300
O748        O  0.92253187  0.99505294  0.15765764    -0.67200
O749        O  0.93916466  0.01214953  0.02940132    -0.79500
C750        C  0.94100225  0.05592358  0.09240328     0.83900
O751        O  0.94610439  0.04180287  0.07579606    -0.66700
Ni752      Ni  0.94090413  0.96709024  0.06619228     1.27400
Ni753      Ni  0.93837694  0.99001243  0.14826217     1.26100
H754        H  0.95077608  0.01782562  0.14311822     0.38400
O755        O  0.93290136  0.05130253  0.61541628    -0.81500
O756        O  0.93459459  0.96319418  0.65756119    -0.66200
O757        O  0.94315280  0.01670233  0.63656876    -1.12800
C758        C  0.93708940  0.99607635  0.50819917     1.05400
O759        O  0.94636327  0.95320134  0.61298693    -0.79400
O760        O  0.95629498  0.97580910  0.55828418    -0.67000
Ni761      Ni  0.93649878  0.03850228  0.66216141     1.34900
C762        C  0.96130939  0.99243708  0.56182394     0.84100
O763        O  0.94107565  0.99360732  0.70230123    -0.79900
O764        O  0.93967720  0.02679745  0.71047373    -0.90200
C765        C  0.94012113  0.94941943  0.64140756     0.83700
O766        O  0.92139705  0.02912368  0.66467225    -0.68400
O767        O  0.93661057  0.97834052  0.52111615    -0.87700
C768        C  0.91695551  0.01195878  0.66376245     0.84500
C769        C  0.94097438  0.00916870  0.72329363     1.06100
H770        H  0.92767671  0.98877969  0.59095514     0.37900
O771        O  0.93572346  0.98882154  0.59513205    -1.10400
O772        O  0.95656215  0.00776284  0.57578617    -0.67000
Ni773      Ni  0.94094852  0.01482108  0.58272814     1.26300
O774        O  0.92260577  0.99623769  0.65715068    -0.67200
O775        O  0.93872278  0.01150256  0.52892256    -0.79500
C776        C  0.94047127  0.05581669  0.59159729     0.83900
O777        O  0.94563319  0.04196610  0.57425988    -0.66700
Ni778      Ni  0.94132269  0.96660286  0.56796031     1.27400
Ni779      Ni  0.93840453  0.99046332  0.64874212     1.26100
H780        H  0.95114549  0.01748277  0.64161224     0.38400
O781        O  0.81663163  0.05324539  0.26748742    -0.81500
O782        O  0.81520630  0.96422858  0.22519387    -0.66200
O783        O  0.80694584  0.01790905  0.24551534    -1.12800
C784        C  0.81271877  0.99691469  0.37391161     1.05400
O785        O  0.80309307  0.95436488  0.26875625    -0.79400
O786        O  0.79347737  0.97688513  0.32461892    -0.67000
Ni787      Ni  0.81426851  0.03944955  0.22075319     1.34900
C788        C  0.78841694  0.99334099  0.32003082     0.84100
O789        O  0.80909228  0.99447342  0.18010003    -0.79900
O790        O  0.81233654  0.02720464  0.17202980    -0.90200
C791        C  0.80932396  0.95056297  0.24029321     0.83700
O792        O  0.82933404  0.02992275  0.22391776    -0.68400
O793        O  0.81331205  0.97926620  0.36054239    -0.87700
C794        C  0.83346141  0.01253575  0.22344912     0.84500
C795        C  0.81032477  0.00980717  0.15904821     1.06100
H796        H  0.82206371  0.98997530  0.29177036     0.37900
O797        O  0.81403503  0.98992792  0.28722074    -1.10400
O798        O  0.79311313  0.00846101  0.30499219    -0.67000
Ni799      Ni  0.80875800  0.01582801  0.29953473     1.26300
O800        O  0.82741107  0.99692899  0.22608663    -0.67200
O801        O  0.81075169  0.01235049  0.35356271    -0.79500
C802        C  0.80879929  0.05701959  0.29081154     0.83900
O803        O  0.80387939  0.04280933  0.30798544    -0.66700
Ni804      Ni  0.80835359  0.96761767  0.31391381     1.27400
Ni805      Ni  0.81154241  0.99150997  0.23368374     1.26100
H806        H  0.79901252  0.01897261  0.23970278     0.38400
O807        O  0.81619912  0.05432811  0.76597259    -0.81500
O808        O  0.81552609  0.96363766  0.72601598    -0.66200
O809        O  0.80746323  0.01760919  0.74493503    -1.12800
C810        C  0.81291251  0.99754054  0.87401019     1.05400
O811        O  0.80370752  0.95394827  0.77066927    -0.79400
O812        O  0.79405000  0.97678570  0.82549807    -0.67000
Ni813      Ni  0.81549114  0.03856883  0.72080985     1.34900
C814        C  0.78878722  0.99284879  0.81883680     0.84100
O815        O  0.80932445  0.99362555  0.68047517    -0.79900
O816        O  0.81529281  0.02506153  0.67277549    -0.90200
C817        C  0.80975157  0.95005609  0.74181778     0.83700
O818        O  0.83017468  0.02894885  0.73212510    -0.68400
O819        O  0.81400852  0.97982337  0.86142093    -0.87700
C820        C  0.83411047  0.01154668  0.72836021     0.84500
C821        C  0.81216629  0.00826723  0.65947582     1.06100
H822        H  0.82255727  0.99013130  0.79192395     0.37900
O823        O  0.81452732  0.98982330  0.78744324    -1.10400
O824        O  0.79342108  0.00778607  0.80299453    -0.67000
Ni825      Ni  0.80899526  0.01564490  0.79890855     1.26300
O826        O  0.82782707  0.99621674  0.72568214    -0.67200
O827        O  0.81063561  0.01254781  0.85300532    -0.79500
C828        C  0.80844480  0.05700486  0.79017651     0.83900
O829        O  0.80379754  0.04236387  0.80682340    -0.66700
Ni830      Ni  0.80900850  0.96768304  0.81518404     1.27400
Ni831      Ni  0.81193341  0.99100256  0.73392145     1.26100
H832        H  0.79959850  0.01902774  0.73838813     0.38400
O833        O  0.19829145  0.05419900  0.23389153    -0.81500
O834        O  0.19121405  0.96476611  0.18816369    -0.66200
O835        O  0.18650385  0.01998555  0.21035599    -1.12800
C836        C  0.19104348  0.99757832  0.33854895     1.05400
O837        O  0.17934515  0.95791940  0.23390620    -0.79400
O838        O  0.17129349  0.98107611  0.28977179    -0.67000
Ni839      Ni  0.19535529  0.04011831  0.18703916     1.34900
C840        C  0.16683272  0.99787101  0.28321181     0.84100
O841        O  0.18616410  0.99704825  0.14443876    -0.79900
O842        O  0.19298335  0.02823165  0.13794231    -0.90200
C843        C  0.18574135  0.95200833  0.20748608     0.83700
O844        O  0.20965853  0.02744740  0.19125139    -0.68400
O845        O  0.19129059  0.97986940  0.32546358    -0.87700
C846        C  0.21223471  0.00941860  0.18516210     0.84500
C847        C  0.18911782  0.01198069  0.12412131     1.06100
H848        H  0.20023256  0.98928702  0.25438954     0.37900
O849        O  0.19218702  0.99047981  0.25089643    -1.10400
O850        O  0.17222612  0.01221260  0.26817687    -0.67000
Ni851      Ni  0.18822442  0.01694798  0.26383231     1.26300
O852        O  0.20503356  0.99536068  0.18641156    -0.67200
O853        O  0.18979445  0.01298816  0.31769623    -0.79500
C854        C  0.19151779  0.05763794  0.26113320     0.83900
O855        O  0.18497018  0.04418414  0.27346228    -0.66700
Ni856      Ni  0.18554151  0.96935779  0.27884593     1.27400
Ni857      Ni  0.18914847  0.99283026  0.19745012     1.26100
H858        H  0.17872298  0.02294498  0.20463430     0.38400
O859        O  0.19690865  0.05377691  0.73160821    -0.81500
O860        O  0.19077183  0.96475772  0.68894652    -0.66200
O861        O  0.18513745  0.01976983  0.70942374    -1.12800
C862        C  0.18937321  0.99880476  0.83857247     1.05400
O863        O  0.17860222  0.95771936  0.73369554    -0.79400
O864        O  0.16968057  0.98113429  0.78673161    -0.67000
Ni865      Ni  0.19341837  0.04022756  0.68497876     1.34900
C866        C  0.16523746  0.99793287  0.78026656     0.84100
O867        O  0.18554207  0.99622879  0.64408694    -0.79900
O868        O  0.19043041  0.02843420  0.63642800    -0.90200
C869        C  0.18519015  0.95196578  0.70772299     0.83700
O870        O  0.20798846  0.02834027  0.68584550    -0.68400
O871        O  0.18918837  0.98102029  0.82583362    -0.87700
C872        C  0.21100340  0.01030141  0.68315190     0.84500
C873        C  0.18744195  0.01148796  0.62327143     1.06100
H874        H  0.19898315  0.98981655  0.75533796     0.37900
O875        O  0.19096042  0.99092641  0.75120250    -1.10400
O876        O  0.17083166  0.01268842  0.76767106    -0.67000
Ni877      Ni  0.18683508  0.01751746  0.76317762     1.26300
O878        O  0.20418980  0.99582500  0.68761395    -0.67200
O879        O  0.18846252  0.01419720  0.81738724    -0.79500
C880        C  0.18987888  0.05818836  0.75746182     0.83900
O881        O  0.18346415  0.04493621  0.77138938    -0.66700
Ni882      Ni  0.18416864  0.96988136  0.77886969     1.27400
Ni883      Ni  0.18826373  0.99271027  0.69744397     1.26100
H884        H  0.17729645  0.02212823  0.70360678     0.38400
O885        O  0.05270114  0.05566871  0.39616765    -0.81500
O886        O  0.05753499  0.96530451  0.43774276    -0.66200
O887        O  0.06374497  0.02053250  0.41883680    -1.12800
C888        C  0.06052094  0.99929972  0.28959211     1.05400
O889        O  0.07051084  0.95867363  0.39566906    -0.79400
O890        O  0.07997710  0.98194146  0.34345592    -0.67000
Ni891      Ni  0.05516710  0.04092987  0.44241769     1.34900
C892        C  0.08438601  0.99875664  0.35043794     0.84100
O893        O  0.06233365  0.99653678  0.48388583    -0.79900
O894        O  0.05706688  0.02848990  0.49104432    -0.90200
C895        C  0.06348127  0.95261968  0.42005463     0.83700
O896        O  0.04060790  0.02915681  0.43710186    -0.68400
O897        O  0.06079141  0.98152372  0.30226468    -0.87700
C898        C  0.03749171  0.01114050  0.43986388     0.84500
C899        C  0.06000422  0.01163781  0.50454012     1.06100
H900        H  0.05037275  0.99048001  0.37090158     0.37900
O901        O  0.05833509  0.99165226  0.37621085    -1.10400
O902        O  0.07867007  0.01356170  0.36205791    -0.67000
Ni903      Ni  0.06260375  0.01826016  0.36487624     1.26300
O904        O  0.04432440  0.99662162  0.43747234    -0.67200
O905        O  0.06142357  0.01476847  0.31065903    -0.79500
C906        C  0.05962412  0.05928288  0.36944786     0.83900
O907        O  0.06604320  0.04573635  0.35669389    -0.66700
Ni908      Ni  0.06542080  0.97057265  0.34969657     1.27400
Ni909      Ni  0.06032711  0.99332353  0.43013426     1.26100
H910        H  0.07152221  0.02287467  0.42567196     0.38400
O911        O  0.05222510  0.05756360  0.89862372    -0.81500
O912        O  0.05805117  0.96651959  0.93752951    -0.66200
O913        O  0.06331474  0.02215580  0.91876597    -1.12800
C914        C  0.05750353  0.00189102  0.78978129     1.05400
O915        O  0.06958213  0.96034216  0.89056606    -0.79400
O916        O  0.07739201  0.98403727  0.83582442    -0.67000
Ni917      Ni  0.05464464  0.04190058  0.94374532     1.34900
C918        C  0.08232907  0.00023007  0.84421694     0.84100
O919        O  0.06355657  0.99783189  0.98308360    -0.79900
O920        O  0.05651816  0.02858592  0.99158152    -0.90200
C921        C  0.06340805  0.95404234  0.91724012     0.83700
O922        O  0.04028530  0.02972174  0.93648365    -0.68400
O923        O  0.05694288  0.98409976  0.80219349    -0.87700
C924        C  0.03748908  0.01176737  0.94241942     0.84500
C925        C  0.06044576  0.01222976  0.00441635     1.06100
H926        H  0.04895300  0.99283842  0.87362396     0.37900
O927        O  0.05703229  0.99360794  0.87670981    -1.10400
O928        O  0.07725530  0.01470364  0.85996503    -0.67000
Ni929      Ni  0.06136000  0.02015112  0.86509980     1.26300
O930        O  0.04456373  0.99757192  0.94176462    -0.67200
O931        O  0.05950607  0.01701815  0.81091338    -0.79500
C932        C  0.05896749  0.06123047  0.87141472     0.83900
O933        O  0.06501069  0.04756559  0.85708166    -0.66700
Ni934      Ni  0.06306991  0.97267020  0.84718121     1.27400
Ni935      Ni  0.06036568  0.99477194  0.92998567     1.26100
H936        H  0.07113686  0.02486380  0.92444621     0.38400
O937        O  0.05321715  0.20097068  0.22942795    -0.81500
O938        O  0.05841063  0.29188002  0.19247798    -0.66200
O939        O  0.06449682  0.23668766  0.21048899    -1.12800
C940        C  0.05946809  0.25621293  0.34007034     1.05400
O941        O  0.07050033  0.29902336  0.23752485    -0.79400
O942        O  0.07967958  0.27468489  0.28890812    -0.67000
Ni943      Ni  0.05660555  0.21619994  0.18418097     1.34900
C944        C  0.08402115  0.25775217  0.28264769     0.84100
O945        O  0.06387303  0.26129562  0.14626893    -0.79900
O946        O  0.05946139  0.22905072  0.13631158    -0.90200
C947        C  0.06388371  0.30471585  0.21156096     0.83700
O948        O  0.04190990  0.22767347  0.18581665    -0.68400
O949        O  0.06010960  0.27414420  0.32840971    -0.87700
C950        C  0.03875667  0.24569273  0.18390437     0.84500
C951        C  0.06210451  0.24640978  0.12441337     1.06100
H952        H  0.05034030  0.26621521  0.25726339     0.37900
O953        O  0.05837106  0.26510153  0.25330486    -1.10400
O954        O  0.07833661  0.24304058  0.27032895    -0.67000
Ni955      Ni  0.06239120  0.23835724  0.26421495     1.26300
O956        O  0.04537255  0.26033133  0.18950411    -0.67200
O957        O  0.06032873  0.24105685  0.31826371    -0.79500
C958        C  0.05961737  0.19738471  0.25761573     0.83900
O959        O  0.06574266  0.21095483  0.27188437    -0.66700
Ni960      Ni  0.06509724  0.28592414  0.28200952     1.27400
Ni961      Ni  0.06118275  0.26391472  0.19970074     1.26100
H962        H  0.07240155  0.23466723  0.20520278     0.38400
O963        O  0.05247717  0.20350386  0.73713508    -0.81500
O964        O  0.05826695  0.29213767  0.68806276    -0.66200
O965        O  0.06419705  0.23757016  0.71208973    -1.12800
C966        C  0.06103708  0.26143650  0.83963889     1.05400
O967        O  0.07101263  0.30008572  0.73009824    -0.79400
O968        O  0.08087581  0.27757881  0.78222385    -0.67000
Ni969      Ni  0.05551989  0.21678596  0.68959718     1.34900
C970        C  0.08489312  0.26024637  0.77826506     0.84100
O971        O  0.06320259  0.25991589  0.64509765    -0.79900
O972        O  0.05795228  0.22780145  0.63988934    -0.90200
C973        C  0.06378559  0.30536608  0.70582007     0.83700
O974        O  0.04102263  0.22897829  0.69203219    -0.68400
O975        O  0.06219907  0.27889196  0.82592686    -0.87700
C976        C  0.03808907  0.24703884  0.68868340     0.84500
C977        C  0.06096120  0.24441205  0.62537311     1.06100
H978        H  0.05095033  0.26919603  0.75719161     0.37900
O979        O  0.05890107  0.26755977  0.75221218    -1.10400
O980        O  0.07882861  0.24524894  0.76970551    -0.67000
Ni981      Ni  0.06272447  0.24105407  0.76575147     1.26300
O982        O  0.04505242  0.26138551  0.69102049    -0.67200
O983        O  0.06109438  0.24557648  0.81950439    -0.79500
C984        C  0.05935041  0.20016932  0.76409444     0.83900
O985        O  0.06585779  0.21377406  0.77614591    -0.66700
Ni986      Ni  0.06634212  0.28897630  0.77719100     1.27400
Ni987      Ni  0.06103753  0.26448273  0.69839425     1.26100
H988        H  0.07199347  0.23496224  0.70598702     0.38400
O989        O  0.19917873  0.20177214  0.38983668    -0.81500
O990        O  0.19303207  0.29026799  0.43400286    -0.66200
O991        O  0.18728122  0.23528589  0.41322612    -1.12800
C992        C  0.19084855  0.25696679  0.28430413     1.05400
O993        O  0.18038390  0.29693700  0.39065085    -0.79400
O994        O  0.17130242  0.27367490  0.33679235    -0.67000
Ni995      Ni  0.19550999  0.21467456  0.43703189     1.34900
C996        C  0.16698851  0.25666555  0.34276417     0.84100
O997        O  0.18817709  0.25850724  0.47896395    -0.79900
O998        O  0.19232606  0.22594226  0.48590662    -0.90200
C999        C  0.18723534  0.30292125  0.41573430     0.83700
O1000       O  0.21006874  0.22671443  0.43767034    -0.68400
O1001       O  0.19067512  0.27470348  0.29728274    -0.87700
C1002       C  0.21319591  0.24475059  0.43970276     0.84500
C1003       C  0.18972579  0.24299607  0.49943285     1.06100
H1004       H  0.20079776  0.26564914  0.36675237     0.37900
O1005       O  0.19280972  0.26434917  0.37148948    -1.10400
O1006       O  0.17264338  0.24212516  0.35571083    -0.67000
Ni1007     Ni  0.18870579  0.23775567  0.35941950     1.26300
O1008       O  0.20651466  0.25925974  0.43405776    -0.67200
O1009       O  0.19003839  0.24144196  0.30524149    -0.79500
C1010       C  0.19205795  0.19719588  0.36431332     0.83900
O1011       O  0.18545114  0.21026649  0.35099718    -0.66700
Ni1012     Ni  0.18575112  0.28535585  0.34472240     1.27400
Ni1013     Ni  0.19051163  0.26229515  0.42542268     1.26100
H1014       H  0.17945512  0.23293765  0.41938129     0.38400
O1015       O  0.19794148  0.20003047  0.89128471    -0.81500
O1016       O  0.19232353  0.29008548  0.93351153    -0.66200
O1017       O  0.18678694  0.23503701  0.91324300    -1.12800
C1018       C  0.19252380  0.25579345  0.78460898     1.05400
O1019       O  0.18072828  0.29684885  0.88683289    -0.79400
O1020       O  0.17278759  0.27371313  0.83086092    -0.67000
Ni1021     Ni  0.19499001  0.21460595  0.93767759     1.34900
C1022       C  0.16786514  0.25748917  0.83904254     0.84100
O1023       O  0.18659895  0.25870027  0.97813337    -0.79900
O1024       O  0.19243635  0.22706108  0.98606782    -0.90200
C1025       C  0.18680035  0.30271618  0.91422394     0.83700
O1026       O  0.20959920  0.22648246  0.93494294    -0.68400
O1027       O  0.19319040  0.27356900  0.79723693    -0.87700
C1028       C  0.21254156  0.24443699  0.94046520     0.84500
C1029       C  0.18900292  0.24375699  0.99912523     1.06100
H1030       H  0.20135924  0.26438258  0.86884704     0.37900
O1031       O  0.19327716  0.26370778  0.87194727    -1.10400
O1032       O  0.17290011  0.24314642  0.85517252    -0.67000
Ni1033     Ni  0.18874549  0.23742958  0.85983242     1.26300
O1034       O  0.20569280  0.25891399  0.93746192    -0.67200
O1035       O  0.19057112  0.24070831  0.80577759    -0.79500
C1036       C  0.19110343  0.19676744  0.86407635     0.83900
O1037       O  0.18484038  0.21043455  0.85129329    -0.66700
Ni1038     Ni  0.18717836  0.28479268  0.84285112     1.27400
Ni1039     Ni  0.18991734  0.26210626  0.92520546     1.26100
H1040       H  0.17892492  0.23260706  0.91873992     0.38400
O1041       O  0.05445067  0.70106966  0.47958661    -0.81500
O1042       O  0.05786868  0.79118192  0.43797249    -0.66200
O1043       O  0.06523824  0.73672863  0.45837428    -1.12800
C1044       C  0.05997406  0.75706822  0.58732493     1.05400
O1045       O  0.06953660  0.79983555  0.48326821    -0.79400
O1046       O  0.07951735  0.77698619  0.53495684    -0.67000
Ni1047     Ni  0.05759658  0.71556682  0.43338658     1.34900
C1048       C  0.08437889  0.76053718  0.52839304     0.84100
O1049       O  0.06432292  0.76044228  0.39326339    -0.79900
O1050       O  0.06028000  0.72792899  0.38502918    -0.90200
C1051       C  0.06276139  0.80466235  0.45716408     0.83700
O1052       O  0.04265907  0.72610221  0.43422810    -0.68400
O1053       O  0.06000166  0.77491970  0.57509017    -0.87700
C1054       C  0.03919193  0.74390689  0.43178717     0.84500
C1055       C  0.06285716  0.74514382  0.37217049     1.06100
H1056       H  0.05041921  0.76546999  0.50406212     0.37900
O1057       O  0.05847429  0.76505496  0.50015210    -1.10400
O1058       O  0.07909198  0.74513214  0.51702557    -0.67000
Ni1059     Ni  0.06327313  0.73878481  0.51200277     1.26300
O1060       O  0.04562720  0.75886854  0.43649480    -0.67200
O1061       O  0.06131965  0.74184827  0.56598672    -0.79500
C1062       C  0.06106141  0.69781558  0.50736350     0.83900
O1063       O  0.06729866  0.71159134  0.52045766    -0.66700
Ni1064     Ni  0.06457823  0.78671413  0.52821774     1.27400
Ni1065     Ni  0.06135873  0.76355042  0.44652005     1.26100
H1066       H  0.07315591  0.73507896  0.45283071     0.38400
O1067       O  0.05362081  0.70245912  0.98255057    -0.81500
O1068       O  0.05913862  0.79227769  0.93743948    -0.66200
O1069       O  0.06491714  0.73717177  0.95863388    -1.12800
C1070       C  0.06106080  0.75913981  0.08728735     1.05400
O1071       O  0.07144850  0.79944650  0.98164597    -0.79400
O1072       O  0.08036449  0.77668034  0.03580608    -0.67000
Ni1073     Ni  0.05641789  0.71652010  0.93551043     1.34900
C1074       C  0.08503808  0.76015651  0.02848581     0.84100
O1075       O  0.06417820  0.76039829  0.89294448    -0.79900
O1076       O  0.05872801  0.72839688  0.88643966    -0.90200
C1077       C  0.06486294  0.80517077  0.95563381     0.83700
O1078       O  0.04185081  0.72842188  0.93876867    -0.68400
O1079       O  0.06069190  0.77684361  0.07426512    -0.87700
C1080       C  0.03885732  0.74640603  0.93445657     0.84500
C1081       C  0.06185449  0.74512592  0.87261059     1.06100
H1082       H  0.05116635  0.76714915  0.00445156     0.37900
O1083       O  0.05918498  0.76626859  0.00002257    -1.10400
O1084       O  0.07960489  0.74529610  0.01535544    -0.67000
Ni1085     Ni  0.06359517  0.73988236  0.01234214     1.26300
O1086       O  0.04573721  0.76091959  0.93709648    -0.67200
O1087       O  0.06235155  0.74371770  0.06639446    -0.79500
C1088       C  0.06055849  0.69896274  0.00932725     0.83900
O1089       O  0.06714886  0.71251575  0.02132473    -0.66700
Ni1090     Ni  0.06582040  0.78766101  0.02713681     1.27400
Ni1091     Ni  0.06168399  0.76423772  0.94629106     1.26100
H1092       H  0.07271240  0.73474701  0.95223941     0.38400
O1093       O  0.19803204  0.69976383  0.14020764    -0.81500
O1094       O  0.19429148  0.79118176  0.18026664    -0.66200
O1095       O  0.18791686  0.73600002  0.16124784    -1.12800
C1096       C  0.19259837  0.75628753  0.03165062     1.05400
O1097       O  0.18225354  0.79812979  0.13504545    -0.79400
O1098       O  0.17340949  0.77506059  0.08108778    -0.67000
Ni1099     Ni  0.19615301  0.71549462  0.18573723     1.34900
C1100       C  0.16842378  0.75889853  0.08923296     0.84100
O1101       O  0.18876455  0.76020480  0.22596030    -0.79900
O1102       O  0.19466145  0.72867981  0.23386922    -0.90200
C1103       C  0.18857366  0.80391835  0.16183225     0.83700
O1104       O  0.21086206  0.72669734  0.17937008    -0.68400
O1105       O  0.19333896  0.77407750  0.04415604    -0.87700
C1106       C  0.21406284  0.74455021  0.18471840     0.84500
C1107       C  0.19145336  0.74546123  0.24701319     1.06100
H1108       H  0.20230163  0.76486417  0.11478238     0.37900
O1109       O  0.19425390  0.76436004  0.11885083    -1.10400
O1110       O  0.17355586  0.74410261  0.10363814    -0.67000
Ni1111     Ni  0.18945889  0.73806161  0.10736390     1.26300
O1112       O  0.20733736  0.75926818  0.18272644    -0.67200
O1113       O  0.19090916  0.74118190  0.05306660    -0.79500
C1114       C  0.19103336  0.69675242  0.11336313     0.83900
O1115       O  0.18536200  0.71094008  0.09927418    -0.66700
Ni1116     Ni  0.18805701  0.78561416  0.09049335     1.27400
Ni1117     Ni  0.19148616  0.76312685  0.17251387     1.26100
H1118       H  0.18007567  0.73388154  0.16748454     0.38400
O1119       O  0.19704154  0.70112545  0.63893842    -0.81500
O1120       O  0.19165738  0.79132866  0.68174408    -0.66200
O1121       O  0.18605249  0.73628441  0.65983527    -1.12800
C1122       C  0.19325692  0.75774469  0.53227573     1.05400
O1123       O  0.18054198  0.79825932  0.63390014    -0.79400
O1124       O  0.17307323  0.77587836  0.57673303    -0.67000
Ni1125     Ni  0.19394130  0.71566350  0.68492979     1.34900
C1126       C  0.16790287  0.75986640  0.58464404     0.84100
O1127       O  0.18555760  0.75969267  0.72559237    -0.79900
O1128       O  0.19122242  0.72797423  0.73318915    -0.90200
C1129       C  0.18632039  0.80405748  0.66201732     0.83700
O1130       O  0.20861937  0.72730732  0.68281877    -0.68400
O1131       O  0.19388135  0.77543027  0.54536572    -0.87700
C1132       C  0.21164634  0.74519000  0.68865352     0.84500
C1133       C  0.18777627  0.74458290  0.74645209     1.06100
H1134       H  0.20114281  0.76560224  0.61751330     0.37900
O1135       O  0.19303357  0.76505732  0.61977397    -1.10400
O1136       O  0.17275481  0.74511328  0.60024703    -0.67000
Ni1137     Ni  0.18853386  0.73888407  0.60648846     1.26300
O1138       O  0.20488252  0.75979915  0.68597083    -0.67200
O1139       O  0.19092249  0.74255729  0.55276997    -0.79500
C1140       C  0.19027620  0.69772058  0.61166553     0.83900
O1141       O  0.18465131  0.71174723  0.59674478    -0.66700
Ni1142     Ni  0.18742768  0.78646334  0.59047169     1.27400
Ni1143     Ni  0.18922178  0.76330642  0.67275068     1.26100
H1144       H  0.17813025  0.73395065  0.66442335     0.38400
O1145       O  0.05183598  0.55560590  0.14317919    -0.81500
O1146       O  0.05761260  0.46525104  0.18406250    -0.66200
O1147       O  0.06300809  0.52055606  0.16467997    -1.12800
C1148       C  0.05732751  0.50012625  0.03576744     1.05400
O1149       O  0.06908476  0.45835363  0.13713231    -0.79400
O1150       O  0.07710601  0.48174458  0.08234347    -0.67000
Ni1151     Ni  0.05435657  0.54048773  0.18914847     1.34900
C1152       C  0.08218332  0.49773540  0.09114363     0.84100
O1153       O  0.06312957  0.49653960  0.22915648    -0.79900
O1154       O  0.05643871  0.52758799  0.23744460    -0.90200
C1155       C  0.06310216  0.45256553  0.16475962     0.83700
O1156       O  0.03987932  0.52827580  0.18366042    -0.68400
O1157       O  0.05668836  0.48233837  0.04824707    -0.87700
C1158       C  0.03711782  0.51029095  0.18973501     0.84500
C1159       C  0.06019628  0.51109741  0.25038817     1.06100
H1160       H  0.04862504  0.49137130  0.11962224     0.37900
O1161       O  0.05670556  0.49197265  0.12280789    -1.10400
O1162       O  0.07715708  0.51242229  0.10650260    -0.67000
Ni1163     Ni  0.06124484  0.51838269  0.11103805     1.26300
O1164       O  0.04417694  0.49610872  0.18796867    -0.67200
O1165       O  0.05947571  0.51518720  0.05688438    -0.79500
C1166       C  0.05884608  0.55940059  0.11671961     0.83900
O1167       O  0.06504953  0.54575452  0.10304073    -0.66700
Ni1168     Ni  0.06266090  0.47083331  0.09355576     1.27400
Ni1169     Ni  0.05997225  0.49331821  0.17609917     1.26100
H1170       H  0.07082313  0.52320508  0.17056725     0.38400
O1171       O  0.05113567  0.55445087  0.63948716    -0.81500
O1172       O  0.05671270  0.46558475  0.68641611    -0.66200
O1173       O  0.06250128  0.52043087  0.66456539    -1.12800
C1174       C  0.05881136  0.49780218  0.53598466     1.05400
O1175       O  0.06904069  0.45829446  0.64255577    -0.79400
O1176       O  0.07812642  0.48057387  0.58819241    -0.67000
Ni1177     Ni  0.05358977  0.54074197  0.68698653     1.34900
C1178       C  0.08288063  0.49705316  0.59559226     0.84100
O1179       O  0.06169047  0.49749160  0.73038286    -0.79900
O1180       O  0.05556881  0.52907117  0.73649811    -0.90200
C1181       C  0.06225693  0.45265959  0.66804848     0.83700
O1182       O  0.03910351  0.52838265  0.68255482    -0.68400
O1183       O  0.05850403  0.48016311  0.54933773    -0.87700
C1184       C  0.03636146  0.51033494  0.68797165     0.84500
C1185       C  0.05891326  0.51254904  0.75056058     1.06100
H1186       H  0.04889579  0.49019968  0.61875915     0.37900
O1187       O  0.05690916  0.49112222  0.62331821    -1.10400
O1188       O  0.07745474  0.51203666  0.60819293    -0.67000
Ni1189     Ni  0.06138909  0.51744550  0.61074678     1.26300
O1190       O  0.04343429  0.49621752  0.68611649    -0.67200
O1191       O  0.06020458  0.51335109  0.55658712    -0.79500
C1192       C  0.05852342  0.55836618  0.61431548     0.83900
O1193       O  0.06501481  0.54481257  0.60189180    -0.66700
Ni1194     Ni  0.06354494  0.46964142  0.59669576     1.27400
Ni1195     Ni  0.05933989  0.49341227  0.67711116     1.26100
H1196       H  0.07024692  0.52315865  0.67129857     0.38400
O1197       O  0.19628332  0.55440705  0.48187214    -0.81500
O1198       O  0.19124732  0.46403323  0.43745889    -0.66200
O1199       O  0.18551644  0.51891973  0.46019133    -1.12800
C1200       C  0.19136921  0.49615542  0.58787288     1.05400
O1201       O  0.17942109  0.45669737  0.48295195    -0.79400
O1202       O  0.17116107  0.47893052  0.53951910    -0.67000
Ni1203     Ni  0.19399491  0.53932443  0.43594206     1.34900
C1204       C  0.16639934  0.49550692  0.53334224     0.84100
O1205       O  0.18552434  0.49566014  0.39400819    -0.79900
O1206       O  0.19230026  0.52670970  0.38722456    -0.90200
C1207       C  0.18586414  0.45106925  0.45645983     0.83700
O1208       O  0.20854308  0.52766244  0.44189888    -0.68400
O1209       O  0.19143180  0.47855259  0.57429289    -0.87700
C1210       C  0.21142983  0.50989749  0.43458002     0.84500
C1211       C  0.18868957  0.51030598  0.37342163     1.06100
H1212       H  0.19994670  0.48880632  0.50348869     0.37900
O1213       O  0.19187669  0.48968001  0.50028685    -1.10400
O1214       O  0.17165421  0.51035795  0.51939689    -0.67000
Ni1215     Ni  0.18760456  0.51592505  0.51385606     1.26300
O1216       O  0.20446680  0.49544832  0.43540433    -0.67200
O1217       O  0.18972269  0.51174530  0.56768468    -0.79500
C1218       C  0.18964332  0.55733889  0.50967466     0.83900
O1219       O  0.18400337  0.54313994  0.52414882    -0.66700
Ni1220     Ni  0.18560592  0.46809944  0.52788567     1.27400
Ni1221     Ni  0.18866247  0.49188859  0.44699108     1.26100
H1222       H  0.17765779  0.52144248  0.45492548     0.38400
O1223       O  0.19492179  0.55456658  0.97903782    -0.81500
O1224       O  0.19112630  0.46336846  0.93882560    -0.66200
O1225       O  0.18464806  0.51822798  0.95936181    -1.12800
C1226       C  0.19069899  0.49717940  0.08795759     1.05400
O1227       O  0.17927152  0.45605996  0.98425864    -0.79400
O1228       O  0.17048438  0.47867760  0.03879343    -0.67000
Ni1229     Ni  0.19268677  0.53880444  0.93397778     1.34900
C1230       C  0.16571309  0.49518128  0.03215059     0.84100
O1231       O  0.18500857  0.49415234  0.89399661    -0.79900
O1232       O  0.19104549  0.52557460  0.88603200    -0.90200
C1233       C  0.18584069  0.45042454  0.95816471     0.83700
O1234       O  0.20743702  0.52793676  0.93956778    -0.68400
O1235       O  0.19056719  0.47940284  0.07523679    -0.87700
C1236       C  0.21061923  0.51018764  0.93356060     0.84500
C1237       C  0.18787341  0.50877170  0.87288511     1.06100
H1238       H  0.19940606  0.48894244  0.00396800     0.37900
O1239       O  0.19133544  0.48964869  0.00062697    -1.10400
O1240       O  0.17101742  0.51015403  0.01903325    -0.67000
Ni1241     Ni  0.18688226  0.51595716  0.01309808     1.26300
O1242       O  0.20391843  0.49537755  0.93570793    -0.67200
O1243       O  0.18914481  0.51253297  0.06706306    -0.79500
C1244       C  0.18843061  0.55739722  0.00724623     0.83900
O1245       O  0.18303038  0.54312048  0.02237824    -0.66700
Ni1246     Ni  0.18511292  0.46822846  0.02892181     1.27400
Ni1247     Ni  0.18815303  0.49118628  0.94721531     1.26100
H1248       H  0.17674124  0.52029262  0.95417819     0.38400
O1249       O  0.43280226  0.55135003  0.10604835    -0.81500
O1250       O  0.43412184  0.46167453  0.14658231    -0.66200
O1251       O  0.44216849  0.51577947  0.12833554    -1.12800
C1252       C  0.43674467  0.49640344  0.99879417     1.05400
O1253       O  0.44583380  0.45216144  0.10142456    -0.79400
O1254       O  0.45571794  0.47515280  0.04763305    -0.67000
Ni1255     Ni  0.43426601  0.53684999  0.15237077     1.34900
C1256       C  0.46100957  0.49121268  0.05448095     0.84100
O1257       O  0.44002574  0.49191103  0.19283652    -0.79900
O1258       O  0.43519172  0.52400476  0.20079599    -0.90200
C1259       C  0.43983164  0.44816171  0.13032937     0.83700
O1260       O  0.41940584  0.52694693  0.14476001    -0.68400
O1261       O  0.43583292  0.47858965  0.01108497    -0.87700
C1262       C  0.41547644  0.50943822  0.14714830     0.84500
C1263       C  0.43771047  0.50687804  0.21389685     1.06100
H1264       H  0.42716185  0.48842417  0.08072645     0.37900
O1265       O  0.43518585  0.48813595  0.08531897    -1.10400
O1266       O  0.45633517  0.50626129  0.06982565    -0.67000
Ni1267     Ni  0.44074472  0.51407354  0.07425250     1.26300
O1268       O  0.42173027  0.49407403  0.14706099    -0.67200
O1269       O  0.43903949  0.51133744  0.02006581    -0.79500
C1270       C  0.44094204  0.55512748  0.08393671     0.83900
O1271       O  0.44597384  0.54095442  0.06716448    -0.66700
Ni1272     Ni  0.44067710  0.46615828  0.05716184     1.27400
Ni1273     Ni  0.43765032  0.48917726  0.13907788     1.26100
H1274       H  0.45003424  0.51716497  0.13495339     0.38400
O1275       O  0.43198112  0.55019893  0.60320305    -0.81500
O1276       O  0.43418382  0.46192829  0.64967523    -0.66200
O1277       O  0.44202164  0.51565944  0.62715226    -1.12800
C1278       C  0.43648284  0.49390842  0.49915442     1.05400
O1279       O  0.44568019  0.45115607  0.60498390    -0.79400
O1280       O  0.45589369  0.47377991  0.55150848    -0.67000
Ni1281     Ni  0.43430512  0.53712769  0.65059944     1.34900
C1282       C  0.46085291  0.49037972  0.55607507     0.84100
O1283       O  0.44030460  0.49303271  0.69335295    -0.79900
O1284       O  0.43613913  0.52553210  0.69982879    -0.90200
C1285       C  0.43959398  0.44787907  0.63400349     0.83700
O1286       O  0.41941047  0.52682505  0.64686779    -0.68400
O1287       O  0.43632161  0.47623966  0.51246068    -0.87700
C1288       C  0.41554039  0.50927749  0.64927691     0.84500
C1289       C  0.43859307  0.50853548  0.71367819     1.06100
H1290       H  0.42702170  0.48685855  0.58203184     0.37900
O1291       O  0.43506088  0.48703466  0.58635365    -1.10400
O1292       O  0.45584422  0.50585356  0.56825165    -0.67000
Ni1293     Ni  0.44022510  0.51307073  0.57333161     1.26300
O1294       O  0.42181451  0.49397747  0.64808894    -0.67200
O1295       O  0.43817736  0.50941599  0.51952757    -0.79500
C1296       C  0.43999569  0.55423669  0.58078822     0.83900
O1297       O  0.44511278  0.54008206  0.56424514    -0.66700
Ni1298     Ni  0.44083282  0.46465678  0.55971978     1.27400
Ni1299     Ni  0.43770351  0.48921518  0.63993395     1.26100
H1300       H  0.44993036  0.51721018  0.63302093     0.38400
O1301       O  0.31652794  0.55012067  0.25718103    -0.81500
O1302       O  0.31518595  0.46061715  0.22257750    -0.66200
O1303       O  0.30651900  0.51439930  0.23879501    -1.12800
C1304       C  0.31251706  0.49683268  0.36861876     1.05400
O1305       O  0.30332026  0.45098059  0.26721062    -0.79400
O1306       O  0.29305923  0.47499657  0.31911517    -0.67000
Ni1307     Ni  0.31333501  0.53563190  0.21168421     1.34900
C1308       C  0.28809405  0.49150572  0.31387865     0.84100
O1309       O  0.30881401  0.48968083  0.17523447    -0.79900
O1310       O  0.31056979  0.52259794  0.16415378    -0.90200
C1311       C  0.30951266  0.44701211  0.23872189     0.83700
O1312       O  0.32848656  0.52637335  0.21192842    -0.68400
O1313       O  0.31268650  0.47879570  0.35714773    -0.87700
C1314       C  0.33282809  0.50918239  0.21388690     0.84500
C1315       C  0.30919179  0.50467640  0.15296366     1.06100
H1316       H  0.32187713  0.48756500  0.28697122     0.37900
O1317       O  0.31384133  0.48747303  0.28256148    -1.10400
O1318       O  0.29301887  0.50664288  0.29978639    -0.67000
Ni1319     Ni  0.30862936  0.51369607  0.29272478     1.26300
O1320       O  0.32706871  0.49356747  0.22048909    -0.67200
O1321       O  0.31086898  0.51175581  0.34675802    -0.79500
C1322       C  0.30911741  0.55457244  0.28163831     0.83900
O1323       O  0.30391226  0.54083002  0.29914900    -0.66700
Ni1324     Ni  0.30812846  0.46580520  0.31122156     1.27400
Ni1325     Ni  0.31128880  0.48790503  0.22897487     1.26100
H1326       H  0.29854125  0.51503014  0.23345009     0.38400
O1327       O  0.31709782  0.54938252  0.76528111    -0.81500
O1328       O  0.31445793  0.46146263  0.71730975    -0.66200
O1329       O  0.30670832  0.51515201  0.74059301    -1.12800
C1330       C  0.31079995  0.49210632  0.86825701     1.05400
O1331       O  0.30198441  0.45106289  0.75910125    -0.79400
O1332       O  0.29139894  0.47366478  0.81244396    -0.67000
Ni1333     Ni  0.31461075  0.53670387  0.71759743     1.34900
C1334       C  0.28694883  0.49079970  0.81030168     0.84100
O1335       O  0.30889871  0.49284426  0.67376765    -0.79900
O1336       O  0.31261247  0.52556664  0.66801360    -0.90200
C1337       C  0.30878613  0.44744811  0.73211515     0.83700
O1338       O  0.32948534  0.52625715  0.72056481    -0.68400
O1339       O  0.31031695  0.47459941  0.85420823    -0.87700
C1340       C  0.33326524  0.50864239  0.71937138     0.84500
C1341       C  0.31040629  0.50852203  0.65379094     1.06100
H1342       H  0.32094969  0.48524350  0.78640409     0.37900
O1343       O  0.31297297  0.48600395  0.78113085    -1.10400
O1344       O  0.29239050  0.50614629  0.79952051    -0.67000
Ni1345     Ni  0.30826229  0.51217288  0.79460140     1.26300
O1346       O  0.32692890  0.49338587  0.72123439    -0.67200
O1347       O  0.31009247  0.50801452  0.84840675    -0.79500
C1348       C  0.30915674  0.55332211  0.78800031     0.83900
O1349       O  0.30393722  0.53924285  0.80436618    -0.66700
Ni1350     Ni  0.30633683  0.46375266  0.80581876     1.27400
Ni1351     Ni  0.31094450  0.48871119  0.72735975     1.26100
H1352       H  0.29882707  0.51675597  0.73445504     0.38400
O1353       O  0.43239295  0.20668184  0.25950537    -0.81500
O1354       O  0.43626925  0.29366329  0.21338569    -0.66200
O1355       O  0.44393803  0.24031627  0.23865778    -1.12800
C1356       C  0.43807315  0.26375449  0.36510362     1.05400
O1357       O  0.44852438  0.30390527  0.25616468    -0.79400
O1358       O  0.45852951  0.28136578  0.31016093    -0.67000
Ni1359     Ni  0.43730060  0.21837115  0.21295046     1.34900
C1360       C  0.46262525  0.26393298  0.31089860     0.84100
O1361       O  0.44217850  0.26213951  0.17077881    -0.79900
O1362       O  0.44175973  0.22876803  0.16473099    -0.90200
C1363       C  0.44200396  0.30754729  0.22845415     0.83700
O1364       O  0.42253203  0.22870434  0.20543268    -0.68400
O1365       O  0.43938327  0.28112285  0.35101760    -0.87700
C1366       C  0.41817744  0.24589575  0.20761194     0.84500
C1367       C  0.44259908  0.24623497  0.15077529     1.06100
H1368       H  0.42909532  0.27081553  0.28184672     0.37900
O1369       O  0.43711067  0.26958280  0.27767539    -1.10400
O1370       O  0.45695164  0.24852748  0.30166272    -0.67000
Ni1371     Ni  0.44113592  0.24327965  0.29218200     1.26300
O1372       O  0.42379881  0.26127721  0.21704154    -0.67200
O1373       O  0.43822540  0.24772532  0.34535215    -0.79500
C1374       C  0.43929446  0.20214950  0.28550275     0.83900
O1375       O  0.44455848  0.21587634  0.30295967    -0.66700
Ni1376     Ni  0.44374208  0.29165825  0.30271009     1.27400
Ni1377     Ni  0.43969861  0.26650661  0.22427372     1.26100
H1378       H  0.45197460  0.23922753  0.23480175     0.38400
O1379       O  0.43533659  0.20406112  0.75258658    -0.81500
O1380       O  0.43469807  0.29386092  0.71984290    -0.66200
O1381       O  0.44468752  0.24073295  0.73576678    -1.12800
C1382       C  0.43861152  0.25741121  0.86596129     1.05400
O1383       O  0.44607837  0.30467028  0.76498513    -0.79400
O1384       O  0.45746877  0.28101893  0.81438603    -0.67000
Ni1385     Ni  0.43849348  0.21912657  0.70773015     1.34900
C1386       C  0.46266089  0.26464855  0.81003015     0.84100
O1387       O  0.44192240  0.26548156  0.67240192    -0.79900
O1388       O  0.44126014  0.23253389  0.66059262    -0.90200
C1389       C  0.43977191  0.30801452  0.73652439     0.83700
O1390       O  0.42312530  0.22733796  0.70690977    -0.68400
O1391       O  0.43836794  0.27550907  0.85502237    -0.87700
C1392       C  0.41840847  0.24419308  0.70972567     0.84500
C1393       C  0.44209410  0.25060609  0.64976270     1.06100
H1394       H  0.42872499  0.26660065  0.78421882     0.37900
O1395       O  0.43675848  0.26710684  0.77984721    -1.10400
O1396       O  0.45788753  0.24894014  0.79753138    -0.67000
Ni1397     Ni  0.44239584  0.24108435  0.78965371     1.26300
O1398       O  0.42378097  0.26005724  0.71762748    -0.67200
O1399       O  0.44003470  0.24261330  0.84361836    -0.79500
C1400       C  0.44256500  0.20009933  0.77796385     0.83900
O1401       O  0.44745712  0.21412455  0.79577969    -0.66700
Ni1402     Ni  0.44210529  0.28904389  0.80881829     1.27400
Ni1403     Ni  0.43935583  0.26692372  0.72619015     1.26100
H1404       H  0.45269334  0.24071351  0.73076043     0.38400
O1405       O  0.31772512  0.20381406  0.11267896    -0.81500
O1406       O  0.31638273  0.29320131  0.15292181    -0.66200
O1407       O  0.30791125  0.23934557  0.13382644    -1.12800
C1408       C  0.31383970  0.25879771  0.00483850     1.05400
O1409       O  0.30467821  0.30314699  0.10808675    -0.79400
O1410       O  0.29456874  0.28003091  0.05455353    -0.67000
Ni1411     Ni  0.31507837  0.21788255  0.15900665     1.34900
C1412       C  0.28940534  0.26367902  0.05987070     0.84100
O1413       O  0.31026479  0.26315222  0.19893865    -0.79900
O1414       O  0.31294292  0.23030163  0.20724909    -0.90200
C1415       C  0.31074584  0.30689543  0.13699746     0.83700
O1416       O  0.33015351  0.22750371  0.15691930    -0.68400
O1417       O  0.31431191  0.27665661  0.01721869    -0.87700
C1418       C  0.33442006  0.24482759  0.15627048     0.84500
C1419       C  0.31126574  0.24779656  0.22012315     1.06100
H1420       H  0.32313124  0.26683745  0.08682932     0.37900
O1421       O  0.31510285  0.26697636  0.09136760    -1.10400
O1422       O  0.29416021  0.24838401  0.07396731    -0.67000
Ni1423     Ni  0.30976319  0.24091623  0.07987807     1.26300
O1424       O  0.32850755  0.26046044  0.15230836    -0.67200
O1425       O  0.31184676  0.24368262  0.02592052    -0.79500
C1426       C  0.31009513  0.19973116  0.08873554     0.83900
O1427       O  0.30490022  0.21378054  0.07211417    -0.66700
Ni1428     Ni  0.30962713  0.28903791  0.06356240     1.27400
Ni1429     Ni  0.31263043  0.26582661  0.14505443     1.26100
H1430       H  0.29996793  0.23837738  0.13959823     0.38400
O1431       O  0.31756508  0.20247297  0.60973795    -0.81500
O1432       O  0.31696615  0.29198425  0.65465203    -0.66200
O1433       O  0.30856228  0.23813031  0.63397179    -1.12800
C1434       C  0.31372749  0.25935652  0.50539195     1.05400
O1435       O  0.30509775  0.30201536  0.61052164    -0.79400
O1436       O  0.29501593  0.27984205  0.55540262    -0.67000
Ni1437     Ni  0.31649241  0.21668086  0.65665414     1.34900
C1438       C  0.28966791  0.26375050  0.56153097     0.84100
O1439       O  0.31104119  0.26117272  0.69944563    -0.79900
O1440       O  0.31597406  0.22905249  0.70579382    -0.90200
C1441       C  0.31150994  0.30584718  0.63848406     0.83700
O1442       O  0.33129076  0.22647487  0.64771327    -0.68400
O1443       O  0.31483700  0.27695168  0.51859972    -0.87700
C1444       C  0.33532522  0.24388380  0.65053107     0.84500
C1445       C  0.31339542  0.24598205  0.71976686     1.06100
H1446       H  0.32352384  0.26593486  0.58717414     0.37900
O1447       O  0.31551966  0.26627212  0.59212560    -1.10400
O1448       O  0.29426125  0.24857476  0.57659081    -0.67000
Ni1449     Ni  0.30982857  0.24056244  0.57994054     1.26300
O1450       O  0.32915342  0.25931099  0.65255648    -0.67200
O1451       O  0.31136728  0.24415461  0.52587903    -0.79500
C1452       C  0.30942109  0.19926004  0.58728339     0.83900
O1453       O  0.30446743  0.21381746  0.57148495    -0.66700
Ni1454     Ni  0.31007572  0.28870566  0.56533982     1.27400
Ni1455     Ni  0.31323550  0.26457629  0.64587149     1.26100
H1456       H  0.30071504  0.23674105  0.64083120     0.38400
O1457       O  0.43312136  0.70427980  0.01265255    -0.81500
O1458       O  0.43400916  0.79297685  0.96808348    -0.66200
O1459       O  0.44271236  0.73951968  0.98865817    -1.12800
C1460       C  0.43905264  0.76110233  0.11728551     1.05400
O1461       O  0.44657828  0.80383727  0.00933036    -0.79400
O1462       O  0.45760987  0.78121211  0.06151573    -0.67000
Ni1463     Ni  0.43508022  0.71778556  0.96534908     1.34900
C1464       C  0.46240714  0.76445036  0.05777181     0.84100
O1465       O  0.43982853  0.76244066  0.92337439    -0.79900
O1466       O  0.43655597  0.72965249  0.91600712    -0.90200
C1467       C  0.44004456  0.80694383  0.98131247     0.83700
O1468       O  0.42008096  0.72736541  0.97008701    -0.68400
O1469       O  0.43883577  0.77882803  0.10413413    -0.87700
C1470       C  0.41600148  0.74476921  0.96972513     0.84500
C1471       C  0.43850312  0.74699831  0.90266746     1.06100
H1472       H  0.42823749  0.76811969  0.03655256     0.37900
O1473       O  0.43619294  0.76793024  0.03073479    -1.10400
O1474       O  0.45724452  0.74895405  0.04622511    -0.67000
Ni1475     Ni  0.44150552  0.74193614  0.04267744     1.26300
O1476       O  0.42207494  0.76034969  0.97159548    -0.67200
O1477       O  0.44012797  0.74556949  0.09656405    -0.79500
C1478       C  0.44109171  0.70065949  0.03552949     0.83900
O1479       O  0.44634595  0.71497596  0.05115947    -0.66700
Ni1480     Ni  0.44249574  0.79037120  0.05581314     1.27400
Ni1481     Ni  0.43796932  0.76585381  0.97697260     1.26100
H1482       H  0.45057232  0.73840875  0.98183236     0.38400
O1483       O  0.43532736  0.70432231  0.51114200    -0.81500
O1484       O  0.43565576  0.79287745  0.46786332    -0.66200
O1485       O  0.44503934  0.73974181  0.48901056    -1.12800
C1486       C  0.43974200  0.76027076  0.61756200     1.05400
O1487       O  0.44723966  0.80434397  0.51169991    -0.79400
O1488       O  0.45852515  0.78185400  0.56322970    -0.67000
Ni1489     Ni  0.43817578  0.71765646  0.46426850     1.34900
C1490       C  0.46355856  0.76525474  0.56027785     0.84100
O1491       O  0.44244679  0.76262806  0.42320970    -0.79900
O1492       O  0.44051172  0.72949338  0.41551969    -0.90200
C1493       C  0.44066701  0.80735816  0.48381199     0.83700
O1494       O  0.42295473  0.72650877  0.46451434    -0.68400
O1495       O  0.43955162  0.77807163  0.60493410    -0.87700
C1496       C  0.41856527  0.74368184  0.46493111     0.84500
C1497       C  0.44185218  0.74704194  0.40237995     1.06100
H1498       H  0.42961672  0.76744543  0.53539815     0.37900
O1499       O  0.43763531  0.76762652  0.53065638    -1.10400
O1500       O  0.45867719  0.74942111  0.54893263    -0.67000
Ni1501     Ni  0.44311107  0.74173565  0.54291442     1.26300
O1502       O  0.42430526  0.75949422  0.46972503    -0.67200
O1503       O  0.44107733  0.74489440  0.59666159    -0.79500
C1504       C  0.44297590  0.70055186  0.53510004     0.83900
O1505       O  0.44806107  0.71479914  0.55160929    -0.66700
Ni1506     Ni  0.44325726  0.79018751  0.55724555     1.27400
Ni1507     Ni  0.44003075  0.76586871  0.47689495     1.26100
H1508       H  0.45299988  0.73910125  0.48338196     0.38400
O1509       O  0.31866207  0.70374497  0.35650944    -0.81500
O1510       O  0.31754651  0.79412405  0.39537295    -0.66200
O1511       O  0.30946044  0.73989741  0.37746682    -1.12800
C1512       C  0.31555804  0.75852259  0.24799379     1.05400
O1513       O  0.30618512  0.80350976  0.34905067    -0.79400
O1514       O  0.29661030  0.78007796  0.29490981    -0.67000
Ni1515     Ni  0.31706152  0.71877661  0.40220019     1.34900
C1516       C  0.29118905  0.76419299  0.30217264     0.84100
O1517       O  0.31127653  0.76409321  0.44186182    -0.79900
O1518       O  0.31595626  0.73197413  0.45014327    -0.90200
C1519       C  0.31188711  0.80756932  0.37866072     0.83700
O1520       O  0.33195966  0.72839854  0.39485095    -0.68400
O1521       O  0.31675156  0.77635591  0.25994155    -0.87700
C1522       C  0.33599536  0.74581890  0.39738767     0.84500
C1523       C  0.31334414  0.74908601  0.46309037     1.06100
H1524       H  0.32487140  0.76683192  0.33053101     0.37900
O1525       O  0.31682289  0.76726546  0.33455737    -1.10400
O1526       O  0.29569338  0.74931204  0.31850415    -0.67000
Ni1527     Ni  0.31120816  0.74135282  0.32356987     1.26300
O1528       O  0.32986540  0.76135597  0.39726872    -0.67200
O1529       O  0.31308416  0.74382362  0.26952055    -0.79500
C1530       C  0.31076630  0.70027000  0.33325050     0.83900
O1531       O  0.30591484  0.71456864  0.31636170    -0.66700
Ni1532     Ni  0.31161175  0.78911124  0.30546955     1.27400
Ni1533     Ni  0.31401751  0.76653692  0.38815035     1.26100
H1534       H  0.30155315  0.73865646  0.38359470     0.38400
O1535       O  0.31768814  0.70383831  0.85406394    -0.81500
O1536       O  0.31566996  0.79168164  0.89858476    -0.66200
O1537       O  0.30741329  0.73814360  0.87696394    -1.12800
C1538       C  0.31324258  0.75925136  0.74882336     1.05400
O1539       O  0.30399703  0.80228520  0.85430030    -0.79400
O1540       O  0.29387842  0.77954563  0.80037093    -0.67000
Ni1541     Ni  0.31469377  0.71656363  0.90134743     1.34900
C1542       C  0.28884993  0.76299000  0.80467395     0.84100
O1543       O  0.30948370  0.76110073  0.94291414    -0.79900
O1544       O  0.31225537  0.72817213  0.95031652    -0.90200
C1545       C  0.31005830  0.80559887  0.88340576     0.83700
O1546       O  0.32970914  0.72637869  0.90047253    -0.68400
O1547       O  0.31349440  0.77693402  0.76211612    -0.87700
C1548       C  0.33378525  0.74380933  0.90070571     0.84500
C1549       C  0.31050004  0.74557906  0.96364264     1.06100
H1550       H  0.32258977  0.76645736  0.83143035     0.37900
O1551       O  0.31455245  0.76636412  0.83580301    -1.10400
O1552       O  0.29374685  0.74751406  0.81731995    -0.67000
Ni1553     Ni  0.30936959  0.74034729  0.82307968     1.26300
O1554       O  0.32776541  0.75930023  0.89709392    -0.67200
O1555       O  0.31151507  0.74376139  0.76920376    -0.79500
C1556       C  0.30992062  0.69939549  0.83096899     0.83900
O1557       O  0.30462129  0.71327234  0.81430001    -0.66700
Ni1558     Ni  0.30890398  0.78868409  0.80911214     1.27400
Ni1559     Ni  0.31195242  0.76448838  0.88934782     1.26100
H1560       H  0.29946772  0.73695142  0.88255153     0.38400
O1561       O  0.43186625  0.05081349  0.36101202    -0.81500
O1562       O  0.43393536  0.96218071  0.40105013    -0.66200
O1563       O  0.44226770  0.01606652  0.38230295    -1.12800
C1564       C  0.43686258  0.99701832  0.25299231     1.05400
O1565       O  0.44545387  0.95178406  0.35597731    -0.79400
O1566       O  0.45610579  0.97565664  0.30434319    -0.67000
Ni1567     Ni  0.43492996  0.03734562  0.40754144     1.34900
C1568       C  0.46110442  0.99223386  0.30918645     0.84100
O1569       O  0.44018630  0.99230605  0.44706218    -0.79900
O1570       O  0.43757280  0.02521008  0.45573418    -0.90200
C1571       C  0.43923677  0.94822734  0.38463203     0.83700
O1572       O  0.41989344  0.02739416  0.40699419    -0.68400
O1573       O  0.43667241  0.97912046  0.26509165    -0.87700
C1574       C  0.41578880  0.00995993  0.40638311     0.84500
C1575       C  0.43943329  0.00771426  0.46833674     1.06100
H1576       H  0.42721869  0.98837998  0.33494136     0.37900
O1577       O  0.43524720  0.98839890  0.33949344    -1.10400
O1578       O  0.45615551  0.00757800  0.32239347    -0.67000
Ni1579     Ni  0.44047433  0.01465404  0.32836701     1.26300
O1580       O  0.42181920  0.99457467  0.40117526    -0.67200
O1581       O  0.43848690  0.01216995  0.27432460    -0.79500
C1582       C  0.43957965  0.05557198  0.33787931     0.83900
O1583       O  0.44511939  0.04193129  0.32126812    -0.66700
Ni1584     Ni  0.44096344  0.96648206  0.31153319     1.27400
Ni1585     Ni  0.43770219  0.98953974  0.39326205     1.26100
H1586       H  0.45019939  0.01718538  0.38815991     0.38400
O1587       O  0.43255286  0.05136748  0.85997731    -0.81500
O1588       O  0.43419709  0.96082132  0.90029772    -0.66200
O1589       O  0.44186409  0.01537085  0.88258143    -1.12800
C1590       C  0.43717756  0.99550466  0.75303137     1.05400
O1591       O  0.44641009  0.95235485  0.85608726    -0.79400
O1592       O  0.45587972  0.97543255  0.80133785    -0.67000
Ni1593     Ni  0.43360031  0.03618715  0.90583223     1.34900
C1594       C  0.46108168  0.99147871  0.80903285     0.84100
O1595       O  0.43993458  0.99141992  0.94707280    -0.79900
O1596       O  0.43421670  0.02310628  0.95405038    -0.90200
C1597       C  0.43998384  0.94758125  0.88345033     0.83700
O1598       O  0.41897761  0.02573790  0.89581203    -0.68400
O1599       O  0.43593567  0.97778408  0.76544963    -0.87700
C1600       C  0.41522701  0.00817286  0.89963173     0.84500
C1601       C  0.43731335  0.00640836  0.96770932     1.06100
H1602       H  0.42721371  0.98761804  0.83469627     0.37900
O1603       O  0.43522875  0.98750264  0.83949799    -1.10400
O1604       O  0.45635154  0.00608089  0.82557904    -0.67000
Ni1605     Ni  0.44068908  0.01348364  0.82856454     1.26300
O1606       O  0.42163912  0.99304983  0.90133296    -0.67200
O1607       O  0.43941724  0.01046829  0.77429745    -0.79500
C1608       C  0.44055678  0.05474080  0.83698404     0.83900
O1609       O  0.44572660  0.04038839  0.82129982    -0.66700
Ni1610     Ni  0.44101585  0.96572117  0.81152276     1.27400
Ni1611     Ni  0.43758502  0.98855012  0.89327861     1.26100
H1612       H  0.44967628  0.01707236  0.88964560     0.38400
O1613       O  0.31648195  0.04876931  0.00633034    -0.81500
O1614       O  0.31534221  0.95910317  0.97156880    -0.66200
O1615       O  0.30634729  0.01264601  0.98996067    -1.12800
C1616       C  0.31318068  0.99466091  0.11899901     1.05400
O1617       O  0.30405187  0.94859577  0.01720371    -0.79400
O1618       O  0.29340433  0.97260471  0.06797221    -0.67000
Ni1619     Ni  0.31250806  0.03415861  0.96160736     1.34900
C1620       C  0.28866588  0.98949018  0.06537570     0.84100
O1621       O  0.30842364  0.98824713  0.92539427    -0.79900
O1622       O  0.30894378  0.02128820  0.91454782    -0.90200
C1623       C  0.31017530  0.94509391  0.98836370     0.83700
O1624       O  0.32769799  0.02507310  0.95853243    -0.68400
O1625       O  0.31273410  0.97666221  0.10746569    -0.87700
C1626       C  0.33229737  0.00811478  0.96159007     0.84500
C1627       C  0.30809501  0.00330423  0.90326448     1.06100
H1628       H  0.32221348  0.98536972  0.03624258     0.37900
O1629       O  0.31414882  0.98549314  0.03249162    -1.10400
O1630       O  0.29373556  0.00499312  0.05339248    -0.67000
Ni1631     Ni  0.30923793  0.01185454  0.04357425     1.26300
O1632       O  0.32682357  0.99244314  0.97000245    -0.67200
O1633       O  0.31218124  0.00976473  0.09715054    -0.79500
C1634       C  0.30959775  0.05304196  0.03258966     0.83900
O1635       O  0.30478056  0.03916013  0.05103688    -0.66700
Ni1636     Ni  0.30854157  0.96367837  0.06117555     1.27400
Ni1637     Ni  0.31119482  0.98624806  0.97905977     1.26100
H1638       H  0.29829348  0.01303203  0.98600170     0.38400
O1639       O  0.31633028  0.05051546  0.51433150    -0.81500
O1640       O  0.31367015  0.96149507  0.46697799    -0.66200
O1641       O  0.30655914  0.01543494  0.49023370    -1.12800
C1642       C  0.31171685  0.99283766  0.61803338     1.05400
O1643       O  0.30211203  0.95088672  0.51169618    -0.79400
O1644       O  0.29245692  0.97358860  0.56713035    -0.67000
Ni1645     Ni  0.31497346  0.03639642  0.46742324     1.34900
C1646       C  0.28753663  0.99021323  0.56285758     0.84100
O1647       O  0.30789049  0.99278640  0.42404859    -0.79900
O1648       O  0.31413301  0.02421116  0.41807786    -0.90200
C1649       C  0.30815209  0.94753509  0.48259578     0.83700
O1650       O  0.32954605  0.02556623  0.47642445    -0.68400
O1651       O  0.31223366  0.97534581  0.60396491    -0.87700
C1652       C  0.33311447  0.00796777  0.47184643     0.84500
C1653       C  0.31075974  0.00774916  0.40387419     1.06100
H1654       H  0.32121846  0.98626720  0.53497253     0.37900
O1655       O  0.31317977  0.98649208  0.53067613    -1.10400
O1656       O  0.29243621  0.00538910  0.54873347    -0.67000
Ni1657     Ni  0.30813993  0.01249653  0.54413861     1.26300
O1658       O  0.32651202  0.99309775  0.46891662    -0.67200
O1659       O  0.30995291  0.00849403  0.59815771    -0.79500
C1660       C  0.30827655  0.05387943  0.53703827     0.83900
O1661       O  0.30334531  0.03944615  0.55348503    -0.66700
Ni1662     Ni  0.30733224  0.96407847  0.55695170     1.27400
Ni1663     Ni  0.31052603  0.98884515  0.47718859     1.26100
H1664       H  0.29871328  0.01743350  0.48399961     0.38400
C1665       C  0.31181679  0.01419746  0.71791321    -0.11400
C1666       C  0.31121663  0.99677208  0.74009948     0.05700
C1667       C  0.31168034  0.97826160  0.72164877    -0.10200
C1668       C  0.31242448  0.97715191  0.68224016    -0.11900
C1669       C  0.31256504  0.99451531  0.65993004    -0.01600
C1670       C  0.31240388  0.01308263  0.67825776    -0.10800
C1671       C  0.30982643  0.99777206  0.78212592     0.05700
H1672       H  0.31105856  0.96451291  0.73748168     0.07600
H1673       H  0.31243524  0.96254797  0.66922772     0.11100
H1674       H  0.31251036  0.02673942  0.66197323     0.11400
H1675       H  0.31174757  0.02874056  0.73112523     0.07700
C1676       C  0.31469023  0.98326749  0.80584846    -0.11500
C1677       C  0.31343315  0.98429719  0.84524973    -0.10700
C1678       C  0.30749447  0.00007183  0.86189364    -0.01700
C1679       C  0.30246683  0.01437213  0.83836494    -0.11800
C1680       C  0.30351102  0.01312111  0.79894403    -0.10200
H1681       H  0.31977904  0.97141687  0.79414395     0.07700
H1682       H  0.31762501  0.97335411  0.86280328     0.11400
H1683       H  0.29788026  0.02674205  0.85055118     0.11100
H1684       H  0.29939651  0.02426434  0.78170416     0.07700
C1685       C  0.31659755  0.98374557  0.22355642    -0.11400
C1686       C  0.31263127  0.00139051  0.24011948     0.05700
C1687       C  0.30976223  0.01744366  0.21644392    -0.10200
C1688       C  0.31055182  0.01568736  0.17700415    -0.11900
C1689       C  0.31417575  0.99780261  0.16042135    -0.01600
C1690       C  0.31735379  0.98196225  0.18418162    -0.10800
C1691       C  0.31162289  0.00310922  0.28196336     0.05700
H1692       H  0.30658982  0.03118374  0.22838217     0.07600
H1693       H  0.30786523  0.02803431  0.15949986     0.11100
H1694       H  0.32019345  0.96797512  0.17231044     0.11400
H1695       H  0.31909378  0.97127936  0.24106609     0.07700
C1696       C  0.30753478  0.98716477  0.30394773    -0.11500
C1697       C  0.30701116  0.98867732  0.34354344    -0.10700
C1698       C  0.31056141  0.00618032  0.36189518    -0.01700
C1699       C  0.31443861  0.02220689  0.33969135    -0.11800
C1700       C  0.31496725  0.02067932  0.30029946    -0.10200
H1701       H  0.30473996  0.97352178  0.29050692     0.07700
H1702       H  0.30395425  0.97608850  0.35974916     0.11400
H1703       H  0.31728971  0.03591452  0.35275216     0.11100
H1704       H  0.31827703  0.03311950  0.28423851     0.07700
C1705       C  0.38692629  0.98891946  0.93399369    -0.11400
C1706       C  0.37965087  0.00412322  0.92175900     0.05700
C1707       C  0.38406140  0.01947698  0.89907060    -0.10200
C1708       C  0.39553656  0.02026212  0.89056646    -0.11900
C1709       C  0.40289908  0.00556869  0.90407163    -0.01600
C1710       C  0.39844568  0.98960527  0.92512377    -0.10800
C1711       C  0.36762201  0.00466671  0.93374450     0.05700
H1712       H  0.37865030  0.03113716  0.88834436     0.07600
H1713       H  0.39869875  0.03264980  0.87401715     0.11100
H1714       H  0.40394503  0.97817019  0.93624163     0.11400
H1715       H  0.38380908  0.97694746  0.95168443     0.07700
C1716       C  0.36101847  0.98726705  0.93522637    -0.11500
C1717       C  0.34959650  0.98823021  0.94527752    -0.10700
C1718       C  0.34455714  0.00661969  0.95396480    -0.01700
C1719       C  0.35124075  0.02389157  0.95326181    -0.11800
C1720       C  0.36261704  0.02291215  0.94348915    -0.10200
H1721       H  0.36460224  0.97300203  0.92767480     0.07700
H1722       H  0.34464545  0.97466701  0.94525139     0.11400
H1723       H  0.34766084  0.03826449  0.96009502     0.11100
H1724       H  0.36751535  0.03652989  0.94357766     0.07700
C1725       C  0.44094159  0.98536270  0.56721679    -0.11400
C1726       C  0.43966714  0.00244584  0.59000083     0.05700
C1727       C  0.43901801  0.02110678  0.57241456    -0.10200
C1728       C  0.43937743  0.02269298  0.53309823    -0.11900
C1729       C  0.44031021  0.00564025  0.51008776    -0.01600
C1730       C  0.44124446  0.98693731  0.52758576    -0.10800
C1731       C  0.43869904  0.00097800  0.63188983     0.05700
H1732       H  0.43786981  0.03452297  0.58898899     0.07600
H1733       H  0.43861076  0.03738026  0.52076736     0.11100
H1734       H  0.44197106  0.97352487  0.51071534     0.11400
H1735       H  0.44164042  0.97077878  0.58001824     0.07700
C1736       C  0.43252989  0.98543546  0.64866006    -0.11500
C1737       C  0.43160428  0.98412190  0.68807852    -0.10700
C1738       C  0.43673730  0.99842960  0.71155437    -0.01700
C1739       C  0.44265622  0.01425933  0.69480511    -0.11800
C1740       C  0.44368877  0.01544873  0.65542419    -0.10200
H1741       H  0.42838727  0.97430464  0.63131339     0.07700
H1742       H  0.42699947  0.97173445  0.70022399     0.11400
H1743       H  0.44689315  0.02528245  0.71217255     0.11100
H1744       H  0.44862464  0.02747229  0.64344753     0.07700
C1745       C  0.43997199  0.98627836  0.06818660    -0.11400
C1746       C  0.43702988  0.00314536  0.08976595     0.05700
C1747       C  0.43449726  0.02091677  0.07097094    -0.10200
C1748       C  0.43476327  0.02182970  0.03155453    -0.11900
C1749       C  0.43757623  0.00497950  0.00969180    -0.01600
C1750       C  0.44025880  0.98718600  0.02846192    -0.10800
C1751       C  0.43639334  0.00224915  0.13172653     0.05700
H1752       H  0.43206513  0.03406114  0.08674530     0.07600
H1753       H  0.43261830  0.03583538  0.01825522     0.11100
H1754       H  0.44247437  0.97397943  0.01252656     0.11400
H1755       H  0.44209277  0.97241524  0.08206288     0.07700
C1756       C  0.43146615  0.98575260  0.14961640    -0.11500
C1757       C  0.43111967  0.98457680  0.18909606    -0.10700
C1758       C  0.43567724  0.99989166  0.21161879    -0.01700
C1759       C  0.44022056  0.01678632  0.19378391    -0.11800
C1760       C  0.44059549  0.01793324  0.15418210    -0.10200
H1761       H  0.42791948  0.97369009  0.13304312     0.07700
H1762       H  0.42748677  0.97142680  0.20202139     0.11400
H1763       H  0.44391440  0.02870893  0.21037336     0.11100
H1764       H  0.44448387  0.03081607  0.14112776     0.07700
C1765       C  0.36136409  0.98834949  0.43793502    -0.11400
C1766       C  0.36872203  0.00348543  0.45031271     0.05700
C1767       C  0.36441257  0.01855721  0.47390449    -0.10200
C1768       C  0.35293075  0.01940969  0.48238897    -0.11900
C1769       C  0.34545220  0.00503327  0.46804065    -0.01600
C1770       C  0.34983874  0.98908081  0.44684124    -0.10800
C1771       C  0.38063973  0.00454691  0.43686973     0.05700
H1772       H  0.36988755  0.03008901  0.48500304     0.07600
H1773       H  0.34984630  0.03169743  0.49933671     0.11100
H1774       H  0.34427403  0.97778210  0.43536331     0.11400
H1775       H  0.36439054  0.97651554  0.41977037     0.07700
C1776       C  0.38733353  0.98740109  0.43289806    -0.11500
C1777       C  0.39865421  0.98895090  0.42152379    -0.10700
C1778       C  0.40350279  0.00767692  0.41383913    -0.01700
C1779       C  0.39665499  0.02465743  0.41652663    -0.11800
C1780       C  0.38541333  0.02310720  0.42775225    -0.10200
H1781       H  0.38392698  0.97286906  0.43965408     0.07700
H1782       H  0.40369306  0.97556484  0.41990488     0.11400
H1783       H  0.40003188  0.03931300  0.41057121     0.11100
H1784       H  0.38044237  0.03657060  0.42934072     0.07700
C1785       C  0.30586034  0.86104661  0.89512928    -0.11400
C1786       C  0.31112842  0.86473720  0.93006883     0.05700
C1787       C  0.31587776  0.84876449  0.95013918    -0.10200
C1788       C  0.31551869  0.82947931  0.93515289    -0.11900
C1789       C  0.31027226  0.82581278  0.90006045    -0.01600
C1790       C  0.30538940  0.84179603  0.88036462    -0.10800
C1791       C  0.31148232  0.88521866  0.94553274     0.05700
H1792       H  0.32000985  0.85126438  0.97712559     0.07600
H1793       H  0.31934719  0.81746610  0.95100257     0.11100
H1794       H  0.30128558  0.83948203  0.85327245     0.11400
H1795       H  0.30199399  0.87306344  0.87938883     0.07700
C1796       C  0.31448457  0.90132025  0.92215848    -0.11500
C1797       C  0.31426154  0.92078823  0.93616520    -0.10700
C1798       C  0.31085286  0.92452409  0.97364054    -0.01700
C1799       C  0.30801526  0.90837107  0.99715643    -0.11800
C1800       C  0.30840823  0.88889751  0.98331873    -0.10200
H1801       H  0.31699134  0.89882147  0.89300085     0.07700
H1802       H  0.31653540  0.93293422  0.91746732     0.11400
H1803       H  0.30546694  0.91079375  0.02629648     0.11100
H1804       H  0.30600917  0.87674971  0.00183527     0.07700
C1805       C  0.31737997  0.73651235  0.56665512    -0.11400
C1806       C  0.31344429  0.75360518  0.58507322     0.05700
C1807       C  0.30931166  0.76949020  0.56301530    -0.10200
C1808       C  0.30916439  0.76822909  0.52327588    -0.11900
C1809       C  0.31310068  0.75101469  0.50500030    -0.01600
C1810       C  0.31718795  0.73521187  0.52729986    -0.10800
C1811       C  0.31384197  0.75475525  0.62712263     0.05700
H1812       H  0.30611269  0.78281173  0.57649366     0.07600
H1813       H  0.30596910  0.78063847  0.50695689     0.11100
H1814       H  0.32042902  0.72176886  0.51437496     0.11400
H1815       H  0.32082591  0.72420196  0.58266403     0.07700
C1816       C  0.31126416  0.73798627  0.64946889    -0.11500
C1817       C  0.31158601  0.73909776  0.68906820    -0.10700
C1818       C  0.31443697  0.75703984  0.70718616    -0.01700
C1819       C  0.31731191  0.77362644  0.68476351    -0.11800
C1820       C  0.31701171  0.77249506  0.64524261    -0.10200
H1821       H  0.30870539  0.72411635  0.63635375     0.07700
H1822       H  0.30921874  0.72611165  0.70543665     0.11400
H1823       H  0.31959367  0.78768191  0.69774393     0.11100
H1824       H  0.31928566  0.78552203  0.62885388     0.07700
C1825       C  0.32066027  0.76731495  0.14335415    -0.11400
C1826       C  0.31426224  0.75189100  0.12698961     0.05700
C1827       C  0.30922991  0.73769854  0.15098055    -0.10200
C1828       C  0.31030163  0.73917759  0.19029243    -0.11900
C1829       C  0.31626394  0.75507858  0.20665257    -0.01600
C1830       C  0.32158631  0.76896948  0.18278830    -0.10800
C1831       C  0.31275368  0.75056128  0.08516768     0.05700
H1832       H  0.30410164  0.72578845  0.13949829     0.07600
H1833       H  0.30594975  0.72842597  0.20791715     0.11100
H1834       H  0.32626125  0.78136688  0.19463269     0.11400
H1835       H  0.32486887  0.77822169  0.12571765     0.07700
C1836       C  0.31162169  0.76777987  0.06272295    -0.11500
C1837       C  0.31041339  0.76629783  0.02327191    -0.10700
C1838       C  0.31026829  0.74755642  0.00552866    -0.01700
C1839       C  0.31108728  0.73040128  0.02819853    -0.11800
C1840       C  0.31238146  0.73188594  0.06734921    -0.10200
H1841       H  0.31167283  0.78240667  0.07561706     0.07700
H1842       H  0.30986795  0.77980756  0.00664963     0.11400
H1843       H  0.31106608  0.71569363  0.01561670     0.11100
H1844       H  0.31339493  0.71832217  0.08352111     0.07700
C1845       C  0.30735562  0.89133064  0.47612998    -0.11400
C1846       C  0.30999745  0.88801848  0.43782763     0.05700
C1847       C  0.31189792  0.90449089  0.41405226    -0.10200
C1848       C  0.31131688  0.92388626  0.42847131    -0.11900
C1849       C  0.30859165  0.92716253  0.46674821    -0.01600
C1850       C  0.30656079  0.91069516  0.49035269    -0.10800
C1851       C  0.31062067  0.86743230  0.42269746     0.05700
H1852       H  0.31399984  0.90233727  0.38443771     0.07600
H1853       H  0.31291845  0.93631460  0.40966252     0.11100
H1854       H  0.30452728  0.91278348  0.52004221     0.11400
H1855       H  0.30575342  0.87891966  0.49497204     0.07700
C1856       C  0.31641724  0.85249003  0.44259283    -0.11500
C1857       C  0.31689160  0.83303515  0.42838289    -0.10700
C1858       C  0.31147967  0.82810067  0.39416095    -0.01700
C1859       C  0.30566277  0.84309771  0.37439886    -0.11800
C1860       C  0.30527773  0.86253407  0.38842768    -0.10200
H1861       H  0.32068279  0.85592526  0.46896583     0.07700
H1862       H  0.32146676  0.82186808  0.44422516     0.11400
H1863       H  0.30139738  0.83984544  0.34794502     0.11100
H1864       H  0.30065017  0.87370017  0.37274426     0.07700
C1865       C  0.44085916  0.89196617  0.38990047    -0.11400
C1866       C  0.43726001  0.88813594  0.42717116     0.05700
C1867       C  0.43412146  0.90430550  0.45026832    -0.10200
C1868       C  0.43466818  0.92383162  0.43648160    -0.11900
C1869       C  0.43849023  0.92762563  0.39944877    -0.01600
C1870       C  0.44151521  0.91146481  0.37627583    -0.10800
C1871       C  0.43734572  0.86744657  0.44230300     0.05700
H1872       H  0.43121532  0.90185030  0.47900527     0.07600
H1873       H  0.43224428  0.93597192  0.45496861     0.11100
H1874       H  0.44439564  0.91388751  0.34749031     0.11400
H1875       H  0.44346816  0.87990748  0.37152580     0.07700
C1876       C  0.43399262  0.85121829  0.41959958    -0.11500
C1877       C  0.43486992  0.83166880  0.43311910    -0.10700
C1878       C  0.43924174  0.82794217  0.46946151    -0.01700
C1879       C  0.44232100  0.84418810  0.49243372    -0.11800
C1880       C  0.44134658  0.86367932  0.47909666    -0.10200
H1881       H  0.43072856  0.85364226  0.39130118     0.07700
H1882       H  0.43234210  0.81947217  0.41487599     0.11400
H1883       H  0.44557946  0.84183456  0.52077074     0.11100
H1884       H  0.44408457  0.87578070  0.49721407     0.07700
C1885       C  0.38815510  0.72915433  0.44694914    -0.11400
C1886       C  0.38337002  0.74731445  0.43550605     0.05700
C1887       C  0.39010022  0.76456852  0.43643383    -0.10200
C1888       C  0.40142073  0.76356663  0.44749457    -0.11900
C1889       C  0.40628048  0.74526862  0.45770507    -0.01600
C1890       C  0.39946204  0.72812918  0.45775609    -0.10800
C1891       C  0.37143353  0.74806827  0.42249678     0.05700
H1892       H  0.38671499  0.77876289  0.42754669     0.07600
H1893       H  0.40646130  0.77702034  0.44680299     0.11100
H1894       H  0.40290439  0.71380769  0.46564798     0.11400
H1895       H  0.38315596  0.71565545  0.44750327     0.07700
C1896       C  0.36687478  0.73233599  0.40105068    -0.11500
C1897       C  0.35546461  0.73210781  0.39141203    -0.10700
C1898       C  0.34833442  0.74771924  0.40255215    -0.01700
C1899       C  0.35297126  0.76397649  0.42225361    -0.11800
C1900       C  0.36439986  0.76411186  0.43227128    -0.10200
H1901       H  0.37210261  0.72000718  0.39212931     0.07700
H1902       H  0.35215821  0.71945225  0.37590287     0.11400
H1903       H  0.34765571  0.77611917  0.43153993     0.11100
H1904       H  0.36761241  0.77640358  0.44897716     0.07700
C1905       C  0.43300696  0.76978517  0.72084406    -0.11400
C1906       C  0.43893915  0.75435859  0.73886474     0.05700
C1907       C  0.44477476  0.74049604  0.71629815    -0.10200
C1908       C  0.44464771  0.74198136  0.67678939    -0.11900
C1909       C  0.43885954  0.75756425  0.65896981    -0.01600
C1910       C  0.43306716  0.77148348  0.68134500    -0.10800
C1911       C  0.43901556  0.75264203  0.78094293     0.05700
H1912       H  0.44964914  0.72869544  0.72914318     0.07600
H1913       H  0.44940632  0.73133185  0.66021456     0.11100
H1914       H  0.42856902  0.78368641  0.66825658     0.11400
H1915       H  0.42825523  0.78051059  0.73720917     0.07700
C1916       C  0.43909255  0.76970644  0.80415637    -0.11500
C1917       C  0.43907299  0.76795434  0.84369673    -0.10700
C1918       C  0.43901636  0.74909881  0.86089106    -0.01700
C1919       C  0.43900498  0.73207301  0.83767901    -0.11800
C1920       C  0.43897686  0.73382115  0.79827445    -0.10200
H1921       H  0.43928201  0.78444724  0.79181857     0.07700
H1922       H  0.43901103  0.78136570  0.86075915     0.11400
H1923       H  0.43891631  0.71730029  0.84992920     0.11100
H1924       H  0.43870625  0.72035650  0.78141762     0.07700
C1925       C  0.43688019  0.77306560  0.22216239    -0.11400
C1926       C  0.44006728  0.75493316  0.23880600     0.05700
C1927       C  0.44230354  0.73857665  0.21502508    -0.10200
C1928       C  0.44150813  0.74036192  0.17565683    -0.11900
C1929       C  0.43858066  0.75861255  0.15900936    -0.01600
C1930       C  0.43619367  0.77491002  0.18274146    -0.10800
C1931       C  0.44095964  0.75296682  0.28074514     0.05700
H1932       H  0.44495445  0.72446167  0.22674391     0.07600
H1933       H  0.44355015  0.72758198  0.15824508     0.11100
H1934       H  0.43391018  0.78919695  0.17085956     0.11400
H1935       H  0.43487129  0.78584831  0.23958248     0.07700
C1936       C  0.44491257  0.76879887  0.30341997    -0.11500
C1937       C  0.44544003  0.76691601  0.34296627    -0.10700
C1938       C  0.44216550  0.74907299  0.36055290    -0.01700
C1939       C  0.43841978  0.73317785  0.33775898    -0.11800
C1940       C  0.43775108  0.73514421  0.29850415    -0.10200
H1941       H  0.44763422  0.78263658  0.29062413     0.07700
H1942       H  0.44835932  0.77941857  0.35973450     0.11400
H1943       H  0.43566201  0.71928943  0.35030942     0.11100
H1944       H  0.43444592  0.72278878  0.28217670     0.07700
C1945       C  0.43081072  0.85163923  0.92301635    -0.11400
C1946       C  0.43913542  0.86564787  0.93261800     0.05700
C1947       C  0.44784241  0.86011880  0.95727708    -0.10200
C1948       C  0.44814090  0.84103406  0.97278591    -0.11900
C1949       C  0.43982973  0.82691293  0.96346837    -0.01600
C1950       C  0.43121828  0.83232706  0.93802517    -0.10800
C1951       C  0.43883998  0.88617369  0.91766659     0.05700
H1952       H  0.45431581  0.87075326  0.96511151     0.07600
H1953       H  0.45489282  0.83735907  0.99219854     0.11100
H1954       H  0.42469139  0.82177693  0.93032574     0.11400
H1955       H  0.42405080  0.85563561  0.90386032     0.07700
C1956       C  0.42979029  0.89885464  0.92607872    -0.11500
C1957       C  0.43018673  0.91895388  0.91551079    -0.10700
C1958       C  0.43954153  0.92652728  0.89569260    -0.01700
C1959       C  0.44840122  0.91357568  0.88626120    -0.11800
C1960       C  0.44810551  0.89366605  0.89750784    -0.10200
H1961       H  0.42259588  0.89334207  0.94183175     0.07700
H1962       H  0.42317350  0.92853518  0.92264388     0.11400
H1963       H  0.45568276  0.91893235  0.87077013     0.11100
H1964       H  0.45516716  0.88410482  0.89078575     0.07700
C1965       C  0.38763873  0.76491675  0.93904346    -0.11400
C1966       C  0.38070599  0.74807652  0.94354859     0.05700
C1967       C  0.38523800  0.73101344  0.96075776    -0.10200
C1968       C  0.39657854  0.73033786  0.97105892    -0.11900
C1969       C  0.40366533  0.74677954  0.96475748    -0.01600
C1970       C  0.39900827  0.76429473  0.94966680    -0.10800
C1971       C  0.36890055  0.74786595  0.92941123     0.05700
H1972       H  0.38004738  0.71799392  0.96570073     0.07600
H1973       H  0.39987413  0.71670529  0.98304267     0.11100
H1974       H  0.40427308  0.77717709  0.94428937     0.11400
H1975       H  0.38441014  0.77827703  0.92583836     0.07700
C1976       C  0.36187094  0.76455030  0.93350368    -0.11500
C1977       C  0.35054842  0.76362615  0.92239049    -0.10700
C1978       C  0.34604252  0.74596589  0.90719325    -0.01700
C1979       C  0.35320188  0.72961879  0.90159122    -0.11800
C1980       C  0.36449596  0.73059674  0.91235791    -0.10200
H1981       H  0.36499975  0.77805412  0.94660560     0.07700
H1982       H  0.34520984  0.77642506  0.92725690     0.11400
H1983       H  0.35001385  0.71587811  0.88954639     0.11100
H1984       H  0.36976188  0.71768361  0.90774094     0.07700
C1985       C  0.30693769  0.14368518  0.60031037    -0.11400
C1986       C  0.30189141  0.13747012  0.56635693     0.05700
C1987       C  0.29856319  0.15200668  0.53979361    -0.10200
C1988       C  0.30059546  0.17230971  0.54670348    -0.11900
C1989       C  0.30619082  0.17829272  0.57992551    -0.01600
C1990       C  0.30910491  0.16377363  0.60689957    -0.10800
C1991       C  0.30151878  0.11586550  0.55725983     0.05700
H1992       H  0.29462560  0.14761183  0.51336161     0.07600
H1993       H  0.29818603  0.18318926  0.52558187     0.11100
H1994       H  0.31328531  0.16791952  0.63306842     0.11400
H1995       H  0.30974940  0.13290956  0.62106157     0.07700
C1996       C  0.30552480  0.10925701  0.52204663    -0.11500
C1997       C  0.30735977  0.08904930  0.51558511    -0.10700
C1998       C  0.30511488  0.07487149  0.54396619    -0.01700
C1999       C  0.30036215  0.08123453  0.57832822    -0.11800
C2000       C  0.29867753  0.10161576  0.58505996    -0.10200
H2001       H  0.30788697  0.11980344  0.50021589     0.07700
H2002       H  0.31083839  0.08453800  0.48850465     0.11400
H2003       H  0.29845118  0.07060494  0.60050204     0.11100
H2004       H  0.29549429  0.10631152  0.61242133     0.07700
C2005       C  0.30228738  0.10115765  0.08422172    -0.11400
C2006       C  0.30512367  0.11554620  0.05666124     0.05700
C2007       C  0.30888732  0.10901881  0.02104701    -0.10200
C2008       C  0.31015865  0.08875048  0.01353204    -0.11900
C2009       C  0.30761698  0.07436986  0.04126639    -0.01600
C2010       C  0.30344297  0.08074573  0.07649920    -0.10800
C2011       C  0.30512899  0.13723535  0.06572640     0.05700
H2012       H  0.31128542  0.11961884  0.99936432     0.07600
H2013       H  0.31327118  0.08433232  0.98590153     0.11100
H2014       H  0.30136241  0.07001911  0.09833128     0.11400
H2015       H  0.29927887  0.10570563  0.11189098     0.07700
C2016       C  0.30181800  0.15156920  0.03870553    -0.11500
C2017       C  0.30303760  0.17201288  0.04620953    -0.10700
C2018       C  0.30775621  0.17844625  0.08062981    -0.01700
C2019       C  0.31070186  0.16411832  0.10795667    -0.11800
C2020       C  0.30937028  0.14383663  0.10069121    -0.10200
H2021       H  0.29842192  0.14695326  0.01157419     0.07700
H2022       H  0.30064149  0.18270902  0.02473187     0.11400
H2023       H  0.31423319  0.16859469  0.13499654     0.11100
H2024       H  0.31212430  0.13329291  0.12194728     0.07700
C2025       C  0.31132856  0.23642094  0.90659187    -0.11400
C2026       C  0.31495343  0.25230156  0.88360891     0.05700
C2027       C  0.31899158  0.26971041  0.90100302    -0.10200
C2028       C  0.31907065  0.27146873  0.94045297    -0.11900
C2029       C  0.31513926  0.25582769  0.96346329    -0.01600
C2030       C  0.31143819  0.23814956  0.94611620    -0.10800
C2031       C  0.31442656  0.25079416  0.84164671     0.05700
H2032       H  0.32204950  0.28203207  0.88407377     0.07600
H2033       H  0.32202541  0.28526656  0.95290558     0.11100
H2034       H  0.30823404  0.22592166  0.96299752     0.11400
H2035       H  0.30807492  0.22287326  0.89399412     0.07700
C2036       C  0.31744223  0.23303179  0.82343212    -0.11500
C2037       C  0.31696434  0.23151943  0.78402060    -0.10700
C2038       C  0.31346594  0.24775182  0.76170915    -0.01700
C2039       C  0.31043330  0.26555422  0.77991118    -0.11800
C2040       C  0.31089869  0.26704753  0.81949485    -0.10200
H2041       H  0.32034952  0.22036071  0.83963765     0.07700
H2042       H  0.31946954  0.21760295  0.77105216     0.11400
H2043       H  0.30771999  0.27832678  0.76361584     0.11100
H2044       H  0.30838596  0.28086783  0.83281165     0.07700
C2045       C  0.31024729  0.27000742  0.31946685    -0.11400
C2046       C  0.31247978  0.25311272  0.34189851     0.05700
C2047       C  0.31388645  0.23467519  0.32389902    -0.10200
C2048       C  0.31307975  0.23306033  0.28468182    -0.11900
C2049       C  0.31100445  0.24989249  0.26201159    -0.01600
C2050       C  0.30955243  0.26842589  0.27984309    -0.10800
C2051       C  0.31333196  0.25443368  0.38389814     0.05700
H2052       H  0.31585641  0.22143937  0.34005341     0.07600
H2053       H  0.31437015  0.21853147  0.27212553     0.11100
H2054       H  0.30800233  0.28168753  0.26323066     0.11400
H2055       H  0.30897884  0.28441676  0.33251901     0.07700
C2056       C  0.31833322  0.27102279  0.40146427    -0.11500
C2057       C  0.31890976  0.27225939  0.44099788    -0.10700
C2058       C  0.31457594  0.25685970  0.46381895    -0.01700
C2059       C  0.30990252  0.24001611  0.44625430    -0.11800
C2060       C  0.30921258  0.23888374  0.40680909    -0.10200
H2061       H  0.32179599  0.28306117  0.38468754     0.07700
H2062       H  0.32258354  0.28544602  0.45369909     0.11400
H2063       H  0.30634035  0.22804277  0.46299169     0.11100
H2064       H  0.30514285  0.22601691  0.39432373     0.07700
C2065       C  0.45037832  0.15253300  0.82985598    -0.11400
C2066       C  0.44732666  0.13797948  0.80285273     0.05700
C2067       C  0.44343916  0.14422517  0.76723273    -0.10200
C2068       C  0.44216033  0.16440731  0.75930652    -0.11900
C2069       C  0.44479660  0.17893538  0.78665748    -0.01600
C2070       C  0.44918493  0.17285915  0.82174157    -0.10800
C2071       C  0.44705432  0.11645124  0.81268634     0.05700
H2072       H  0.44087588  0.13348992  0.74597432     0.07600
H2073       H  0.43889589  0.16863950  0.73178287     0.11100
H2074       H  0.45134483  0.18374640  0.84323483     0.11400
H2075       H  0.45350513  0.14818324  0.85747566     0.07700
C2076       C  0.44983849  0.10172186  0.78574677    -0.11500
C2077       C  0.44809964  0.08148945  0.79370579    -0.10700
C2078       C  0.44340282  0.07570578  0.82852273    -0.01700
C2079       C  0.44105131  0.09036017  0.85586906    -0.11800
C2080       C  0.44289503  0.11044643  0.84813843    -0.10200
H2081       H  0.45317012  0.10587671  0.75827170     0.07700
H2082       H  0.45005121  0.07047388  0.77225907     0.11400
H2083       H  0.43757789  0.08629691  0.88321688     0.11100
H2084       H  0.44054195  0.12132943  0.86935779     0.07700
C2085       C  0.38805469  0.22897267  0.69328809    -0.11400
C2086       C  0.38320926  0.24676457  0.68010780     0.05700
C2087       C  0.38995159  0.26399937  0.67867130    -0.10200
C2088       C  0.40129314  0.26335154  0.68960393    -0.11900
C2089       C  0.40616361  0.24541895  0.70187908    -0.01600
C2090       C  0.39939462  0.22827880  0.70377768    -0.10800
C2091       C  0.37114292  0.24718966  0.66844466     0.05700
H2092       H  0.38653634  0.27789515  0.66832232     0.07600
H2093       H  0.40634078  0.27675000  0.68731608     0.11100
H2094       H  0.40288333  0.21426124  0.71326591     0.11400
H2095       H  0.38306193  0.21552669  0.69571198     0.07700
C2096       C  0.36628595  0.23069309  0.65003995    -0.11500
C2097       C  0.35473022  0.23003947  0.64274109    -0.10700
C2098       C  0.34773504  0.24596438  0.65324143    -0.01700
C2099       C  0.35266063  0.26299831  0.66949717    -0.11800
C2100       C  0.36424207  0.26357641  0.67715645    -0.10200
H2101       H  0.37139133  0.21806451  0.64187661     0.07700
H2102       H  0.35122604  0.21680808  0.62966431     0.11400
H2103       H  0.34748879  0.27548850  0.67798784     0.11100
H2104       H  0.36768258  0.27649349  0.69146040     0.07700
C2105       C  0.44868914  0.10436850  0.29227051    -0.11400
C2106       C  0.44409792  0.11829605  0.31782978     0.05700
C2107       C  0.43865423  0.11138742  0.35052523    -0.10200
C2108       C  0.43740696  0.09103663  0.35688481    -0.11900
C2109       C  0.44167390  0.07701524  0.33092133    -0.01600
C2110       C  0.44759083  0.08385522  0.29897007    -0.10800
C2111       C  0.44395117  0.13987325  0.30904864     0.05700
H2112       H  0.43493614  0.12175161  0.37044549     0.07600
H2113       H  0.43292720  0.08627881  0.38207973     0.11100
H2114       H  0.45104191  0.07340814  0.27868099     0.11400
H2115       H  0.45296518  0.10938088  0.26686204     0.07700
C2116       C  0.44660174  0.15418183  0.33690510    -0.11500
C2117       C  0.44532100  0.17454889  0.32936966    -0.10700
C2118       C  0.44111406  0.18086012  0.29417383    -0.01700
C2119       C  0.43861721  0.16651417  0.26629648    -0.11800
C2120       C  0.44010583  0.14628932  0.27353649    -0.10200
H2121       H  0.44956494  0.14956756  0.36458153     0.07700
H2122       H  0.44734814  0.18529183  0.35126664     0.11400
H2123       H  0.43547366  0.17093637  0.23872326     0.11100
H2124       H  0.43785260  0.13559796  0.25178784     0.07700
C2125       C  0.43952308  0.27823662  0.46873695    -0.11400
C2126       C  0.43865679  0.25973101  0.48702492     0.05700
C2127       C  0.43647574  0.24269440  0.46479062    -0.10200
C2128       C  0.43577484  0.24400182  0.42523421    -0.11900
C2129       C  0.43706448  0.26242680  0.40698603    -0.01600
C2130       C  0.43865484  0.27958286  0.42935279    -0.10800
C2131       C  0.44030256  0.25814162  0.52888074     0.05700
H2132       H  0.43542368  0.22824494  0.47786550     0.07600
H2133       H  0.43450604  0.23051132  0.40893771     0.11100
H2134       H  0.43973878  0.29406154  0.41637311     0.11400
H2135       H  0.44132055  0.29166652  0.48460591     0.07700
C2136       C  0.44527687  0.24107547  0.54468727    -0.11500
C2137       C  0.44632538  0.23904727  0.58393222    -0.10700
C2138       C  0.44264107  0.25419126  0.60842346    -0.01700
C2139       C  0.43818935  0.27169113  0.59277740    -0.11800
C2140       C  0.43694260  0.27358300  0.55346572    -0.10200
H2141       H  0.44831408  0.22914685  0.52678783     0.07700
H2142       H  0.44984994  0.22542128  0.59518274     0.11400
H2143       H  0.43513315  0.28349572  0.61099163     0.11100
H2144       H  0.43297046  0.28687289  0.54254965     0.07700
C2145       C  0.44215061  0.23149503  0.04717216    -0.11400
C2146       C  0.44149950  0.24999753  0.02884775     0.05700
C2147       C  0.44215652  0.26743807  0.05096922    -0.10200
C2148       C  0.44304944  0.26635069  0.09053734    -0.11900
C2149       C  0.44337764  0.24779085  0.10884569    -0.01600
C2150       C  0.44313360  0.23040610  0.08653491    -0.10800
C2151       C  0.44002216  0.25100401  0.98693224     0.05700
H2152       H  0.44191526  0.28196189  0.03774166     0.07600
H2153       H  0.44317618  0.28003130  0.10679903     0.11100
H2154       H  0.44328784  0.21581673  0.09954014     0.11400
H2155       H  0.44152662  0.21775613  0.03124525     0.07700
C2156       C  0.44529455  0.23704783  0.96301746    -0.11500
C2157       C  0.44419357  0.23834959  0.92361770    -0.10700
C2158       C  0.43795130  0.25381691  0.90721866    -0.01700
C2159       C  0.43242083  0.26744519  0.93099902    -0.11800
C2160       C  0.43336183  0.26595419  0.97041334    -0.10200
H2161       H  0.45061357  0.22549839  0.97462698     0.07700
H2162       H  0.44873041  0.22788868  0.90593623     0.11400
H2163       H  0.42755018  0.27952392  0.91905233     0.11100
H2164       H  0.42894893  0.27664094  0.98791844     0.07700
C2165       C  0.38941346  0.23356835  0.16758000    -0.11400
C2166       C  0.38281248  0.24968657  0.17966134     0.05700
C2167       C  0.38808570  0.26540423  0.19932117    -0.10200
C2168       C  0.39963186  0.26449498  0.20813791    -0.11900
C2169       C  0.40606011  0.24779703  0.19761679    -0.01600
C2170       C  0.40083006  0.23258567  0.17656877    -0.10800
C2171       C  0.37039189  0.24909503  0.17368967     0.05700
H2172       H  0.38321375  0.27802637  0.20900895     0.07600
H2173       H  0.40344936  0.27656700  0.22398569     0.11100
H2174       H  0.40556749  0.21976370  0.16704733     0.11400
H2175       H  0.38569061  0.22148320  0.15150254     0.07700
C2176       C  0.36428036  0.26595879  0.16213882    -0.11500
C2177       C  0.35258611  0.26472115  0.15608263    -0.10700
C2178       C  0.34681669  0.24659417  0.16148480    -0.01700
C2179       C  0.35297887  0.22989393  0.17338660    -0.11800
C2180       C  0.36455291  0.23114949  0.17950493    -0.10200
H2181       H  0.36855987  0.27998024  0.15730961     0.07700
H2182       H  0.34808169  0.27788811  0.14706737     0.11400
H2183       H  0.34883721  0.21576799  0.17849189     0.11100
H2184       H  0.36894079  0.21800227  0.18926183     0.07700
C2185       C  0.30594499  0.60825520  0.77024967    -0.11400
C2186       C  0.30292307  0.61537735  0.80618077     0.05700
C2187       C  0.30094756  0.60167922  0.83569326    -0.10200
C2188       C  0.30245911  0.58124103  0.82969641    -0.11900
C2189       C  0.30622367  0.57435121  0.79437072    -0.01600
C2190       C  0.30767730  0.58797039  0.76450925    -0.10800
C2191       C  0.30350519  0.63699934  0.81391677     0.05700
H2192       H  0.29859863  0.60687910  0.86368026     0.07600
H2193       H  0.30122565  0.57098295  0.85301851     0.11100
H2194       H  0.31041769  0.58294192  0.73680046     0.11400
H2195       H  0.30762587  0.61848233  0.74718520     0.07700
C2196       C  0.31008605  0.64371787  0.84430504    -0.11500
C2197       C  0.31204344  0.66394922  0.84947105    -0.10700
C2198       C  0.30738980  0.67807857  0.82457733    -0.01700
C2199       C  0.30046863  0.67147646  0.79476544    -0.11800
C2200       C  0.29863490  0.65102538  0.78923379    -0.10200
H2201       H  0.31410382  0.63324253  0.86329781     0.07700
H2202       H  0.31732962  0.66849713  0.87299491     0.11400
H2203       H  0.29670854  0.68203239  0.77536449     0.11100
H2204       H  0.29354905  0.64612682  0.76547109     0.07700
C2205       C  0.31583382  0.35069798  0.70249488    -0.11400
C2206       C  0.31291414  0.36641051  0.67807089     0.05700
C2207       C  0.30996982  0.36207079  0.64042455    -0.10200
C2208       C  0.30957561  0.34238497  0.62776284    -0.11900
C2209       C  0.31230146  0.32661239  0.65227675    -0.01600
C2210       C  0.31564275  0.33096929  0.68959776    -0.10800
C2211       C  0.31226899  0.38715766  0.69224221     0.05700
H2212       H  0.30761261  0.37387745  0.62111447     0.07600
H2213       H  0.30708934  0.33949313  0.59870764     0.11100
H2214       H  0.31782870  0.31911578  0.70902915     0.11400
H2215       H  0.31820209  0.35370086  0.73161715     0.07700
C2216       C  0.30648326  0.39130792  0.72602629    -0.11500
C2217       C  0.30525629  0.41089906  0.73857158    -0.10700
C2218       C  0.30990406  0.42679829  0.71784273    -0.01700
C2219       C  0.31584133  0.42263650  0.68424994    -0.11800
C2220       C  0.31693209  0.40300121  0.67140857    -0.10200
H2221       H  0.30269270  0.37939465  0.74234953     0.07700
H2222       H  0.30070246  0.41357308  0.76469927     0.11400
H2223       H  0.31956991  0.43454933  0.66777176     0.11100
H2224       H  0.32146292  0.40016054  0.64529640     0.07700
C2225       C  0.29972214  0.60270754  0.32877797    -0.11400
C2226       C  0.30414825  0.61692380  0.30345434     0.05700
C2227       C  0.30974443  0.61040543  0.27077026    -0.10200
C2228       C  0.31119208  0.59017942  0.26393206    -0.11900
C2229       C  0.30701214  0.57587790  0.28945699    -0.01600
C2230       C  0.30104696  0.58229363  0.32163295    -0.10800
C2231       C  0.30404379  0.63846273  0.31239049     0.05700
H2232       H  0.31340271  0.62099889  0.25113719     0.07600
H2233       H  0.31573081  0.58575633  0.23864897     0.11100
H2234       H  0.29767351  0.57160172  0.34163103     0.11400
H2235       H  0.29537346  0.60741386  0.35424852     0.07700
C2236       C  0.30167822  0.65266156  0.28411821    -0.11500
C2237       C  0.30338372  0.67299009  0.29103420    -0.10700
C2238       C  0.30769126  0.67931418  0.32606981    -0.01700
C2239       C  0.30957541  0.66517032  0.35476096    -0.11800
C2240       C  0.30769726  0.64498647  0.34809463    -0.10200
H2241       H  0.29881280  0.64795423  0.25634901     0.07700
H2242       H  0.30181614  0.68361938  0.26858245     0.11400
H2243       H  0.31275311  0.66970038  0.38226578     0.11100
H2244       H  0.30969094  0.63439036  0.37022239     0.07700
C2245       C  0.30860585  0.51907389  0.46629436    -0.11400
C2246       C  0.31242850  0.50354608  0.48977229     0.05700
C2247       C  0.31729325  0.48671067  0.47279626    -0.10200
C2248       C  0.31784788  0.48501513  0.43338089    -0.11900
C2249       C  0.31364525  0.50019339  0.40992643    -0.01600
C2250       C  0.30926327  0.51745822  0.42679574    -0.10800
C2251       C  0.31132008  0.50482497  0.53174507     0.05700
H2252       H  0.32060422  0.47472726  0.48997281     0.07600
H2253       H  0.32134267  0.47156514  0.42124699     0.11100
H2254       H  0.30583686  0.52930349  0.40950092     0.11400
H2255       H  0.30472438  0.53219359  0.47835639     0.07700
C2256       C  0.31287911  0.52307833  0.55039307    -0.11500
C2257       C  0.31220008  0.52426190  0.58980400    -0.10700
C2258       C  0.31002544  0.50719092  0.61179780    -0.01700
C2259       C  0.30823276  0.48896366  0.59319682    -0.11800
C2260       C  0.30883589  0.48781097  0.55358162    -0.10200
H2261       H  0.31494251  0.53642019  0.53463822     0.07700
H2262       H  0.31366748  0.53858126  0.60305078     0.11400
H2263       H  0.30652929  0.47554758  0.60922426     0.11100
H2264       H  0.30736001  0.47356967  0.54006337     0.07700
C2265       C  0.30952027  0.47808400  0.97203788    -0.11400
C2266       C  0.31126250  0.49644272  0.99010936     0.05700
C2267       C  0.31354631  0.51333270  0.96770559    -0.10200
C2268       C  0.31370192  0.51197786  0.92807699    -0.11900
C2269       C  0.31171085  0.49365091  0.91007972    -0.01600
C2270       C  0.30978448  0.47669037  0.93260289    -0.10800
C2271       C  0.31029476  0.49802229  0.03203749     0.05700
H2272       H  0.31514102  0.52764582  0.98079598     0.07600
H2273       H  0.31524194  0.52529484  0.91157113     0.11100
H2274       H  0.30809588  0.46234252  0.91976513     0.11400
H2275       H  0.30757155  0.46485359  0.98829407     0.07700
C2276       C  0.30525739  0.51480875  0.04861391    -0.11500
C2277       C  0.30448129  0.51654466  0.08795692    -0.10700
C2278       C  0.30857048  0.50141455  0.11165195    -0.01700
C2279       C  0.31327980  0.48431037  0.09525562    -0.11800
C2280       C  0.31420475  0.48268499  0.05581421    -0.10200
H2281       H  0.30190376  0.52664999  0.03117545     0.07700
H2282       H  0.30080039  0.52988209  0.09992635     0.11400
H2283       H  0.31669399  0.47260994  0.11294399     0.11100
H2284       H  0.31824667  0.46965079  0.04400722     0.07700
C2285       C  0.31583151  0.40258209  0.17595051    -0.11400
C2286       C  0.31069558  0.38705662  0.19623988     0.05700
C2287       C  0.30511436  0.39130305  0.23033404    -0.10200
C2288       C  0.30460478  0.41083294  0.24385315    -0.11900
C2289       C  0.30981686  0.42643211  0.22376889    -0.01600
C2290       C  0.31547498  0.42208240  0.18972664    -0.10800
C2291       C  0.31088220  0.36653830  0.18128106     0.05700
H2292       H  0.30100888  0.37953334  0.24617712     0.07600
H2293       H  0.30019216  0.41368296  0.27018597     0.11100
H2294       H  0.31958674  0.43374983  0.17364281     0.11400
H2295       H  0.32019327  0.39955977  0.14958123     0.07700
C2296       C  0.30678944  0.36260854  0.14474928    -0.11500
C2297       C  0.30668631  0.34320048  0.13064114    -0.10700
C2298       C  0.31085099  0.32735901  0.15256633    -0.01700
C2299       C  0.31509284  0.33136187  0.18903387    -0.11800
C2300       C  0.31499973  0.35079043  0.20342109    -0.10200
H2301       H  0.30351815  0.37455128  0.12734584     0.07700
H2302       H  0.30340862  0.34062646  0.10238278     0.11400
H2303       H  0.31835921  0.31946943  0.20655522     0.11100
H2304       H  0.31823079  0.35358299  0.23167116     0.07700
C2305       C  0.44160959  0.60981493  0.59671462    -0.11400
C2306       C  0.44746700  0.61650202  0.56462236     0.05700
C2307       C  0.45152435  0.60231676  0.53847452    -0.10200
C2308       C  0.44941510  0.58192320  0.54379675    -0.11900
C2309       C  0.44305091  0.57544063  0.57502812    -0.01600
C2310       C  0.43939401  0.58960398  0.60174887    -0.10800
C2311       C  0.44807422  0.63821678  0.55659553     0.05700
H2312       H  0.45613375  0.60705271  0.51354189     0.07600
H2313       H  0.45244886  0.57134367  0.52300264     0.11100
H2314       H  0.43462717  0.58509140  0.62650824     0.11400
H2315       H  0.43825242  0.62030371  0.61710944     0.07700
C2316       C  0.44527533  0.64515129  0.52031700    -0.11500
C2317       C  0.44397251  0.66545225  0.51362445    -0.10700
C2318       C  0.44558022  0.67942662  0.54284208    -0.01700
C2319       C  0.44900122  0.67272497  0.57871861    -0.11800
C2320       C  0.45013144  0.65223231  0.58564840    -0.10200
H2321       H  0.44349329  0.63481203  0.49749606     0.07700
H2322       H  0.44144349  0.67023040  0.48554772     0.11400
H2323       H  0.45030980  0.68320288  0.60167205     0.11100
H2324       H  0.45234808  0.64729874  0.61390662     0.07700
C2325       C  0.43364725  0.40442164  0.69985259    -0.11400
C2326       C  0.43790803  0.38836867  0.67872740     0.05700
C2327       C  0.44275916  0.39204125  0.64312347    -0.10200
C2328       C  0.44341271  0.41139704  0.62894976    -0.11900
C2329       C  0.43910390  0.42750171  0.64988217    -0.01600
C2330       C  0.43416278  0.42380720  0.68543929    -0.10800
C2331       C  0.43769152  0.36788732  0.69415080     0.05700
H2332       H  0.44623071  0.37994746  0.62652512     0.07600
H2333       H  0.44723464  0.41371785  0.60140328     0.11100
H2334       H  0.43075346  0.43589455  0.70219000     0.11400
H2335       H  0.42984050  0.40192645  0.72737018     0.07700
C2336       C  0.44154125  0.36418516  0.73108840    -0.11500
C2337       C  0.44215754  0.34472852  0.74478719    -0.10700
C2338       C  0.43879320  0.32858371  0.72200458    -0.01700
C2339       C  0.43460309  0.33233941  0.68542810    -0.11800
C2340       C  0.43414652  0.35181408  0.67151879    -0.10200
H2341       H  0.44438717  0.37631091  0.74897652     0.07700
H2342       H  0.44532437  0.34232008  0.77322378     0.11400
H2343       H  0.43190188  0.32020994  0.66729782     0.11100
H2344       H  0.43106228  0.35434049  0.64301449     0.07700
C2345       C  0.38483838  0.52227963  0.66323307    -0.11400
C2346       C  0.38033051  0.50451318  0.67784850     0.05700
C2347       C  0.38725957  0.48756564  0.67928567    -0.10200
C2348       C  0.39861640  0.48873594  0.66826924    -0.11900
C2349       C  0.40323447  0.50687296  0.65557597    -0.01600
C2350       C  0.39611475  0.52346046  0.65235330    -0.10800
C2351       C  0.36853498  0.50418392  0.69233006     0.05700
H2352       H  0.38403000  0.47364231  0.69031729     0.07600
H2353       H  0.40387602  0.47567879  0.67115268     0.11100
H2354       H  0.39932321  0.53760387  0.64228219     0.11400
H2355       H  0.37965721  0.53545095  0.66065563     0.07700
C2356       C  0.36433517  0.52063020  0.71252695    -0.11500
C2357       C  0.35299722  0.52160090  0.72285425    -0.10700
C2358       C  0.34556058  0.50603398  0.71372142    -0.01700
C2359       C  0.34986065  0.48900369  0.69556516    -0.11800
C2360       C  0.36124494  0.48810532  0.68487525    -0.10200
H2361       H  0.36979170  0.53301396  0.71971477     0.07700
H2362       H  0.34998121  0.53481340  0.73721016     0.11400
H2363       H  0.34431279  0.47681753  0.68793632     0.11100
H2364       H  0.36421416  0.47523701  0.66934665     0.07700
C2365       C  0.45132128  0.60314331  0.03897937    -0.11400
C2366       C  0.44790425  0.61722434  0.06628728     0.05700
C2367       C  0.44316006  0.61050109  0.10033957    -0.10200
C2368       C  0.44120995  0.59025768  0.10604204    -0.11900
C2369       C  0.44409334  0.57620851  0.07806248    -0.01600
C2370       C  0.44953414  0.58273980  0.04499018    -0.10800
C2371       C  0.44767223  0.63877553  0.05734412     0.05700
H2372       H  0.44034584  0.62099013  0.12165972     0.07600
H2373       H  0.43717161  0.58562380  0.13215396     0.11100
H2374       H  0.45193170  0.57221422  0.02317160     0.11400
H2375       H  0.45503208  0.60800371  0.01248202     0.07700
C2376       C  0.45106654  0.65325062  0.08398572    -0.11500
C2377       C  0.44931015  0.67357546  0.07681668    -0.10700
C2378       C  0.44387837  0.67959954  0.04334659    -0.01700
C2379       C  0.44079384  0.66508667  0.01649789    -0.11800
C2380       C  0.44273064  0.64498003  0.02328793    -0.10200
H2381       H  0.45487401  0.64879229  0.11056097     0.07700
H2382       H  0.45182607  0.68446110  0.09786933     0.11400
H2383       H  0.43671674  0.66926672  0.99020289     0.11100
H2384       H  0.43987051  0.63418079  0.00255928     0.07700
C2385       C  0.44031389  0.51871709  0.90097808    -0.11400
C2386       C  0.43674676  0.50295457  0.87752222     0.05700
C2387       C  0.43223634  0.48578308  0.89444746    -0.10200
C2388       C  0.43173906  0.48405634  0.93387729    -0.11900
C2389       C  0.43569222  0.49950815  0.95735734    -0.01600
C2390       C  0.43975605  0.51704085  0.94045746    -0.10800
C2391       C  0.43774967  0.50438425  0.83559675     0.05700
H2392       H  0.42915066  0.47359246  0.87719729     0.07600
H2393       H  0.42848354  0.47039129  0.94596324     0.11100
H2394       H  0.44295376  0.52915073  0.95769877     0.11400
H2395       H  0.44390256  0.53210945  0.88887103     0.07700
C2396       C  0.43551762  0.52243455  0.81718413    -0.11500
C2397       C  0.43616105  0.52378355  0.77781565    -0.10700
C2398       C  0.43898200  0.50707554  0.75563298    -0.01700
C2399       C  0.44142063  0.48905783  0.77401003    -0.11800
C2400       C  0.44083672  0.48774490  0.81361750    -0.10200
H2401       H  0.43297925  0.53545317  0.83312691     0.07700
H2402       H  0.43416214  0.53791997  0.76475743     0.11400
H2403       H  0.44362739  0.47593031  0.75781958     0.11100
H2404       H  0.44280665  0.47369478  0.82704515     0.07700
C2405       C  0.44102786  0.48590383  0.31346011    -0.11400
C2406       C  0.43603995  0.50101404  0.33552312     0.05700
C2407       C  0.43173225  0.51785568  0.31715247    -0.10200
C2408       C  0.43247545  0.51970076  0.27790222    -0.11900
C2409       C  0.43744980  0.50466361  0.25571706    -0.01600
C2410       C  0.44167921  0.48766700  0.27389548    -0.10800
C2411       C  0.43540471  0.49943516  0.37754295     0.05700
H2412       H  0.42762671  0.52956383  0.33306680     0.07600
H2413       H  0.42895447  0.53289127  0.26490766     0.11100
H2414       H  0.44553432  0.47582335  0.25762461     0.11400
H2415       H  0.44456446  0.47283045  0.32680139     0.07700
C2416       C  0.43330072  0.48103201  0.39501348    -0.11500
C2417       C  0.43318872  0.47942921  0.43450620    -0.10700
C2418       C  0.43515745  0.49620866  0.45755499    -0.01700
C2419       C  0.43684898  0.51475892  0.44010453    -0.11800
C2420       C  0.43700176  0.51634148  0.40057463    -0.10200
H2421       H  0.43178513  0.46781555  0.37815897     0.07700
H2422       H  0.43179907  0.46489798  0.44693438     0.11400
H2423       H  0.43844498  0.52796040  0.45693228     0.11100
H2424       H  0.43874831  0.53073475  0.38809000     0.07700
C2425       C  0.44481578  0.39270558  0.13758088    -0.11400
C2426       C  0.43987514  0.38815713  0.17262223     0.05700
C2427       C  0.43495020  0.40346405  0.19409829    -0.10200
C2428       C  0.43486488  0.42302002  0.18045665    -0.11900
C2429       C  0.43987130  0.42760843  0.14538688    -0.01600
C2430       C  0.44487946  0.41223353  0.12420519    -0.10800
C2431       C  0.44012992  0.36751894  0.18697736     0.05700
H2432       H  0.43107658  0.40022924  0.22123116     0.07600
H2433       H  0.43094317  0.43453291  0.19740028     0.11100
H2434       H  0.44879881  0.41525002  0.09706218     0.11400
H2435       H  0.44877436  0.38116379  0.12079016     0.07700
C2436       C  0.43654600  0.35160967  0.16400724    -0.11500
C2437       C  0.43705792  0.33203884  0.17740578    -0.10700
C2438       C  0.44137951  0.32807625  0.21369974    -0.01700
C2439       C  0.44500129  0.34404270  0.23650775    -0.11800
C2440       C  0.44429191  0.36358011  0.22339427    -0.10200
H2441       H  0.43327962  0.35436903  0.13581339     0.07700
H2442       H  0.43420064  0.32002118  0.15927716     0.11400
H2443       H  0.44829997  0.34145107  0.26471664     0.11100
H2444       H  0.44718754  0.37561269  0.24142696     0.07700
C2445       C  0.38446506  0.52214276  0.15196392    -0.11400
C2446       C  0.37994554  0.50559565  0.17109310     0.05700
C2447       C  0.38704635  0.48936966  0.17889362    -0.10200
C2448       C  0.39852157  0.49012639  0.16939575    -0.11900
C2449       C  0.40311958  0.50715117  0.15202631    -0.01600
C2450       C  0.39589864  0.52295198  0.14272814    -0.10800
C2451       C  0.36800833  0.50584966  0.18420236     0.05700
H2452       H  0.38383997  0.47644369  0.19374043     0.07600
H2453       H  0.40388497  0.47777457  0.17720021     0.11100
H2454       H  0.39914315  0.53620066  0.12902285     0.11400
H2455       H  0.37917801  0.53467780  0.14466025     0.07700
C2456       C  0.36338490  0.52343846  0.19912788    -0.11500
C2457       C  0.35208241  0.52424412  0.20997874    -0.10700
C2458       C  0.34509544  0.50743115  0.20654877    -0.01700
C2459       C  0.34977325  0.48959474  0.19286395    -0.11800
C2460       C  0.36111799  0.48882122  0.18173262    -0.10200
H2461       H  0.36851541  0.53668500  0.20231364     0.07700
H2462       H  0.34876599  0.53816993  0.22064569     0.11400
H2463       H  0.34456571  0.47645267  0.18946110     0.11100
H2464       H  0.36440545  0.47507960  0.17016759     0.07700
C2465       C  0.23562599  0.48548045  0.88639898    -0.11400
C2466       C  0.24321186  0.50144953  0.88185993     0.05700
C2467       C  0.24032389  0.52000815  0.89763682    -0.10200
C2468       C  0.23000709  0.52263465  0.91637239    -0.11900
C2469       C  0.22233364  0.50673893  0.92005199    -0.01600
C2470       C  0.22538777  0.48805093  0.90538783    -0.10800
C2471       C  0.25408819  0.49858226  0.86107265     0.05700
H2472       H  0.24601796  0.53256372  0.89543682     0.07600
H2473       H  0.22791890  0.53727826  0.92707602     0.11100
H2474       H  0.21964427  0.47552998  0.90706750     0.11400
H2475       H  0.23741104  0.47104347  0.87420465     0.07700
C2476       C  0.25987064  0.48040494  0.86367727    -0.11500
C2477       C  0.27016322  0.47763712  0.84524451    -0.10700
C2478       C  0.27514081  0.49304988  0.82401489    -0.01700
C2479       C  0.26929868  0.51116491  0.82067759    -0.11800
C2480       C  0.25886345  0.51385434  0.83879491    -0.10200
H2481       H  0.25664387  0.46840861  0.88105969     0.07700
H2482       H  0.27446265  0.46359126  0.84912076     0.11400
H2483       H  0.27289907  0.52340313  0.80475765     0.11100
H2484       H  0.25457776  0.52794610  0.83550296     0.07700
C2485       C  0.24184053  0.51838594  0.40478360    -0.11400
C2486       C  0.24413145  0.50093981  0.38401628     0.05700
C2487       C  0.23585759  0.48592105  0.38291927    -0.10200
C2488       C  0.22552679  0.48839964  0.40137284    -0.11900
C2489       C  0.22309637  0.50607292  0.42111635    -0.01600
C2490       C  0.23143290  0.52096411  0.42293408    -0.10800
C2491       C  0.25506337  0.49835124  0.36356053     0.05700
H2492       H  0.23720377  0.47243152  0.36675881     0.07600
H2493       H  0.21924152  0.47676732  0.39867917     0.11100
H2494       H  0.22982467  0.53481068  0.43769023     0.11400
H2495       H  0.24807577  0.53012078  0.40691511     0.07700
C2496       C  0.26048251  0.51458596  0.34603379    -0.11500
C2497       C  0.27094417  0.51219959  0.32816084    -0.10700
C2498       C  0.27625458  0.49350263  0.32727823    -0.01700
C2499       C  0.27065393  0.47716365  0.34369204    -0.11800
C2500       C  0.26023276  0.47956094  0.36162415    -0.10200
H2501       H  0.25666955  0.52920194  0.34626608     0.07700
H2502       H  0.27502214  0.52515430  0.31604541     0.11400
H2503       H  0.27449988  0.46256838  0.34387774     0.11100
H2504       H  0.25641697  0.46674478  0.37511285     0.07700
C2505       C  0.19359084  0.48268868  0.69196039    -0.11400
C2506       C  0.19131033  0.50099025  0.70952132     0.05700
C2507       C  0.18999423  0.51800808  0.68670166    -0.10200
C2508       C  0.19062562  0.51667084  0.64722008    -0.11900
C2509       C  0.19252802  0.49825138  0.62956123    -0.01600
C2510       C  0.19420599  0.48133221  0.65244992    -0.10800
C2511       C  0.19033348  0.50249986  0.75144630     0.05700
H2512       H  0.18811390  0.53231654  0.69931002     0.07600
H2513       H  0.18918997  0.52995004  0.63053453     0.11100
H2514       H  0.19569634  0.46687647  0.63983878     0.11400
H2515       H  0.19485936  0.46939741  0.70875524     0.07700
C2516       C  0.18485764  0.48768613  0.77299651    -0.11500
C2517       C  0.18385192  0.48961519  0.81251520    -0.10700
C2518       C  0.18823958  0.50646065  0.83104691    -0.01700
C2519       C  0.19373976  0.52112060  0.80928346    -0.11800
C2520       C  0.19481294  0.51912128  0.77019294    -0.10200
H2521       H  0.18123414  0.47474932  0.75926575     0.07700
H2522       H  0.17965125  0.47800197  0.82847144     0.11400
H2523       H  0.19744595  0.53413584  0.82250167     0.11100
H2524       H  0.19930508  0.53055509  0.75466566     0.07700
C2525       C  0.18976335  0.51995865  0.18626853    -0.11400
C2526       C  0.19134980  0.50316435  0.20953072     0.05700
C2527       C  0.19371988  0.48480385  0.19228409    -0.10200
C2528       C  0.19406876  0.48311209  0.15280451    -0.11900
C2529       C  0.19206832  0.49975258  0.12950924    -0.01600
C2530       C  0.19015052  0.51828687  0.14673915    -0.10800
C2531       C  0.19045778  0.50481354  0.25154615     0.05700
H2532       H  0.19524444  0.47167867  0.20930008     0.07600
H2533       H  0.19562293  0.46859078  0.14055919     0.11100
H2534       H  0.18849774  0.53136798  0.12971853     0.11400
H2535       H  0.18782246  0.53431644  0.19854825     0.07700
C2536       C  0.19452009  0.52183809  0.27014296    -0.11500
C2537       C  0.19365696  0.52364741  0.30940917    -0.10700
C2538       C  0.18878318  0.50841049  0.33143646    -0.01700
C2539       C  0.18472366  0.49129451  0.31297445    -0.11800
C2540       C  0.18551694  0.48954730  0.27340825    -0.10200
H2541       H  0.19857087  0.53369654  0.25441609     0.07700
H2542       H  0.19703413  0.53696112  0.32253710     0.11400
H2543       H  0.18098215  0.47924885  0.32905576     0.11100
H2544       H  0.18216550  0.47631861  0.25991824     0.07700
C2545       C  0.13759249  0.48278832  0.57340395    -0.11400
C2546       C  0.13106910  0.49944300  0.56357900     0.05700
C2547       C  0.13639243  0.51534028  0.54460590    -0.10200
C2548       C  0.14787256  0.51427950  0.53479814    -0.11900
C2549       C  0.15425395  0.49726861  0.54365249    -0.01600
C2550       C  0.14895056  0.48167033  0.56345340    -0.10800
C2551       C  0.11870343  0.49949369  0.57182939     0.05700
H2552       H  0.13162375  0.52836348  0.53645487     0.07600
H2553       H  0.15170168  0.52663721  0.51985357     0.11100
H2554       H  0.15358581  0.46846327  0.57145389     0.11400
H2555       H  0.13390817  0.47048030  0.58889602     0.07700
C2556       C  0.11250728  0.48176044  0.56812282    -0.11500
C2557       C  0.10103151  0.48115742  0.57637476    -0.10700
C2558       C  0.09525053  0.49831358  0.58837298    -0.01700
C2559       C  0.10136253  0.51621209  0.59182802    -0.11800
C2560       C  0.11297643  0.51680044  0.58357102    -0.10200
H2561       H  0.11650448  0.46824064  0.55828756     0.07700
H2562       H  0.09667348  0.46708689  0.57300820     0.11400
H2563       H  0.09717740  0.52973138  0.60073532     0.11100
H2564       H  0.11749539  0.53070860  0.58687842     0.07700
C2565       C  0.05202910  0.48964965  0.93171852    -0.11400
C2566       C  0.05699859  0.50634435  0.91443877     0.05700
C2567       C  0.06129898  0.52163060  0.93762481    -0.10200
C2568       C  0.06086105  0.52007497  0.97711030    -0.11900
C2569       C  0.05621419  0.50310420  0.99435250    -0.01600
C2570       C  0.05168199  0.48800913  0.97122516    -0.10800
C2571       C  0.05776780  0.50782202  0.87244148     0.05700
H2572       H  0.06532679  0.53456424  0.92526693     0.07600
H2573       H  0.06459483  0.53180208  0.99409768     0.11100
H2574       H  0.04803824  0.47473957  0.98366348     0.11400
H2575       H  0.04844390  0.47780023  0.91469869     0.07700
C2576       C  0.06018882  0.49099657  0.85007866    -0.11500
C2577       C  0.06085436  0.49252182  0.81052436    -0.10700
C2578       C  0.05911288  0.51091117  0.79251471    -0.01700
C2579       C  0.05680047  0.52772648  0.81500464    -0.11800
C2580       C  0.05612378  0.52619318  0.85438185    -0.10200
H2581       H  0.06164808  0.47666432  0.86316710     0.07700
H2582       H  0.06257205  0.47925701  0.79406423     0.11400
H2583       H  0.05533831  0.54212583  0.80217550     0.11100
H2584       H  0.05408330  0.53937769  0.87064228     0.07700
C2585       C  0.06404106  0.48945921  0.34931322    -0.11400
C2586       C  0.05999008  0.50509164  0.37221615     0.05700
C2587       C  0.05637167  0.52266571  0.35459854    -0.10200
C2588       C  0.05676560  0.52463636  0.31532306    -0.11900
C2589       C  0.06066945  0.50900246  0.29226362    -0.01600
C2590       C  0.06434430  0.49137166  0.30970479    -0.10800
C2591       C  0.05939439  0.50324178  0.41425722     0.05700
H2592       H  0.05297034  0.53484627  0.37109102     0.07600
H2593       H  0.05376256  0.53840058  0.30303861     0.11100
H2594       H  0.06736240  0.47902370  0.29279681     0.11400
H2595       H  0.06703342  0.47578828  0.36197292     0.07700
C2596       C  0.05654868  0.48504537  0.43141823    -0.11500
C2597       C  0.05595777  0.48345648  0.47090757    -0.10700
C2598       C  0.05813673  0.50005715  0.49422092    -0.01700
C2599       C  0.06077415  0.51832335  0.47705686    -0.11800
C2600       C  0.06146375  0.51986350  0.43762045    -0.10200
H2601       H  0.05470135  0.47203559  0.41436014     0.07700
H2602       H  0.05393028  0.46911567  0.48316342     0.11400
H2603       H  0.06266366  0.53132608  0.49410639     0.11100
H2604       H  0.06387515  0.53404191  0.42550025     0.07700
C2605       C  0.11109742  0.48320280  0.05526232    -0.11400
C2606       C  0.11781778  0.49953436  0.06568426     0.05700
C2607       C  0.11266513  0.51580055  0.08392979    -0.10200
C2608       C  0.10107775  0.51545150  0.09228665    -0.11900
C2609       C  0.09444247  0.49883726  0.08246747    -0.01600
C2610       C  0.09962874  0.48282738  0.06359200    -0.10800
C2611       C  0.13016755  0.49903261  0.05807599     0.05700
H2612       H  0.11763199  0.52857989  0.09246035     0.07600
H2613       H  0.09734994  0.52806255  0.10667965     0.11100
H2614       H  0.09482453  0.46984344  0.05510317     0.11400
H2615       H  0.11470924  0.47062757  0.04041444     0.07700
C2616       C  0.13614753  0.48121095  0.06313887    -0.11500
C2617       C  0.14759267  0.48007858  0.05450609    -0.10700
C2618       C  0.15346720  0.49677064  0.04067750    -0.01700
C2619       C  0.14755927  0.51475382  0.03611092    -0.11800
C2620       C  0.13602353  0.51587921  0.04479471    -0.10200
H2621       H  0.13197386  0.46805411  0.07403433     0.07700
H2622       H  0.15183660  0.46601102  0.05877881     0.11400
H2623       H  0.15183364  0.52792783  0.02575316     0.11100
H2624       H  0.13164077  0.52979711  0.04038902     0.07700
C2625       C  0.23653252  0.76996195  0.73698061    -0.11400
C2626       C  0.24445580  0.75444663  0.73805412     0.05700
C2627       C  0.24181372  0.73639103  0.71986330    -0.10200
C2628       C  0.23137201  0.73368813  0.70213185    -0.11900
C2629       C  0.22332741  0.74901705  0.70195993    -0.01600
C2630       C  0.22611493  0.76730242  0.71907853    -0.10800
C2631       C  0.25544068  0.75708354  0.75791818     0.05700
H2632       H  0.24781402  0.72428310  0.71944138     0.07600
H2633       H  0.22950657  0.71941002  0.68928486     0.11100
H2634       H  0.22006818  0.77933717  0.72002040     0.11400
H2635       H  0.23823920  0.78399230  0.75099890     0.07700
C2636       C  0.26132665  0.77520326  0.75549965    -0.11500
C2637       C  0.27191273  0.77738841  0.77237231    -0.10700
C2638       C  0.27693277  0.76148162  0.79202389    -0.01700
C2639       C  0.27088364  0.74355805  0.79556828    -0.11800
C2640       C  0.26025319  0.74140521  0.77878138    -0.10200
H2641       H  0.25793515  0.78751706  0.73938032     0.07700
H2642       H  0.27634280  0.79136533  0.76872330     0.11400
H2643       H  0.27448160  0.73100088  0.81046364     0.11100
H2644       H  0.25584010  0.72737566  0.78184440     0.07700
C2645       C  0.18473032  0.65372547  0.54655147    -0.11400
C2646       C  0.18813026  0.63766353  0.56943259     0.05700
C2647       C  0.19203218  0.64154067  0.60627048    -0.10200
C2648       C  0.19273272  0.66106648  0.61971275    -0.11900
C2649       C  0.18939466  0.67715496  0.59683392    -0.01600
C2650       C  0.18526744  0.67328293  0.56023135    -0.10800
C2651       C  0.18814025  0.61703322  0.55431812     0.05700
H2652       H  0.19481647  0.62949441  0.62435086     0.07600
H2653       H  0.19587657  0.66356798  0.64816966     0.11100
H2654       H  0.18263429  0.68537296  0.54199783     0.11400
H2655       H  0.18163628  0.65112720  0.51806882     0.07700
C2656       C  0.18411557  0.60095522  0.57609105    -0.11500
C2657       C  0.18443822  0.58148284  0.56171004    -0.10700
C2658       C  0.18897292  0.57774702  0.52557026    -0.01700
C2659       C  0.19299585  0.59388462  0.50401032    -0.11800
C2660       C  0.19253524  0.61325995  0.51811545    -0.10200
H2661       H  0.18065066  0.60348575  0.60409776     0.07700
H2662       H  0.18128218  0.56936791  0.57897996     0.11400
H2663       H  0.19649674  0.59156673  0.47598422     0.11100
H2664       H  0.19583257  0.62529510  0.50093361     0.07700
C2665       C  0.26247513  0.74259868  0.27728828    -0.11400
C2666       C  0.25794255  0.75750511  0.25374634     0.05700
C2667       C  0.26407732  0.77529369  0.24923524    -0.10200
C2668       C  0.27457952  0.77783439  0.26662707    -0.11900
C2669       C  0.27931811  0.76260517  0.28883166    -0.01600
C2670       C  0.27303940  0.74507603  0.29445333    -0.10800
C2671       C  0.24699505  0.75440890  0.23346983     0.05700
H2672       H  0.26097948  0.78705061  0.23108739     0.07600
H2673       H  0.27917808  0.79149977  0.26139827     0.11100
H2674       H  0.27640581  0.73302629  0.31135342     0.11400
H2675       H  0.25790230  0.72889195  0.28227728     0.07700
C2676       C  0.24384312  0.73543355  0.22011875    -0.11500
C2677       C  0.23342051  0.73239954  0.20233045    -0.10700
C2678       C  0.22587811  0.74828460  0.19712562    -0.01700
C2679       C  0.22920501  0.76738944  0.20916746    -0.11800
C2680       C  0.23958018  0.77039041  0.22721030    -0.10200
H2681       H  0.24940887  0.72282871  0.22354241     0.07700
H2682       H  0.23114453  0.71745848  0.19364951     0.11400
H2683       H  0.22358318  0.77995725  0.20613966     0.11100
H2684       H  0.24159610  0.78517295  0.23740236     0.07700
C2685       C  0.19469761  0.76762792  0.92662275    -0.11400
C2686       C  0.19007496  0.75033831  0.91034502     0.05700
C2687       C  0.18720724  0.73436237  0.93435524    -0.10200
C2688       C  0.18867205  0.73583098  0.97362400    -0.11900
C2689       C  0.19291452  0.75340083  0.98994389    -0.01600
C2690       C  0.19605739  0.76917126  0.96590661    -0.10800
C2691       C  0.18848703  0.74880587  0.86849148     0.05700
H2692       H  0.18350861  0.72088297  0.92296664     0.07600
H2693       H  0.18601239  0.72350710  0.99130100     0.11100
H2694       H  0.19935909  0.78292711  0.97751409     0.11400
H2695       H  0.19727123  0.78002263  0.90901562     0.07700
C2696       C  0.18540954  0.76546817  0.84652636    -0.11500
C2697       C  0.18469168  0.76411114  0.80686895    -0.10700
C2698       C  0.18696973  0.74602593  0.78842455    -0.01700
C2699       C  0.18955548  0.72923361  0.81065638    -0.11800
C2700       C  0.19036919  0.73063173  0.84997458    -0.10200
H2701       H  0.18366318  0.77962435  0.85993958     0.07700
H2702       H  0.18265624  0.77730516  0.79067009     0.11400
H2703       H  0.19136345  0.71499375  0.79763526     0.11100
H2704       H  0.19289179  0.71754843  0.86568682     0.07700
C2705       C  0.19413440  0.73235467  0.35087024    -0.11400
C2706       C  0.19286764  0.75086220  0.36878301     0.05700
C2707       C  0.19077150  0.76776740  0.34625667    -0.10200
C2708       C  0.19001037  0.76612629  0.30666289    -0.11900
C2709       C  0.19132698  0.74754324  0.28890408    -0.01600
C2710       C  0.19333186  0.73070422  0.31161082    -0.10800
C2711       C  0.19362283  0.75225469  0.41081949     0.05700
H2712       H  0.18962537  0.78222769  0.35923666     0.07600
H2713       H  0.18855063  0.77940007  0.28999303     0.11100
H2714       H  0.19446109  0.71613421  0.29904276     0.11400
H2715       H  0.19595573  0.71909471  0.36715575     0.07700
C2716       C  0.18913693  0.73702393  0.43369542    -0.11500
C2717       C  0.18963377  0.73830759  0.47316813    -0.10700
C2718       C  0.19448033  0.75499540  0.49082518    -0.01700
C2719       C  0.19917942  0.77006682  0.46806157    -0.11800
C2720       C  0.19880411  0.76866296  0.42847211    -0.10200
H2721       H  0.18491599  0.72432878  0.42112793     0.07700
H2722       H  0.18575072  0.72662049  0.48984103     0.11400
H2723       H  0.20295973  0.78313400  0.48085565     0.11100
H2724       H  0.20252729  0.78046060  0.41170222     0.07700
C2725       C  0.18409383  0.65373588  0.04733811    -0.11400
C2726       C  0.18778544  0.63730345  0.06864330     0.05700
C2727       C  0.19243510  0.64059446  0.10471830    -0.10200
C2728       C  0.19352939  0.65990892  0.11899580    -0.11900
C2729       C  0.18986426  0.67637008  0.09773060    -0.01600
C2730       C  0.18504061  0.67307176  0.06185930    -0.10800
C2731       C  0.18729467  0.61687196  0.05267960     0.05700
H2732       H  0.19547223  0.62824327  0.12154347     0.07600
H2733       H  0.19721814  0.66194688  0.14683490     0.11100
H2734       H  0.18213695  0.68544649  0.04482760     0.11400
H2735       H  0.18043460  0.65160152  0.01948170     0.07700
C2736       C  0.18365197  0.60066465  0.07483329    -0.11500
C2737       C  0.18376065  0.58129096  0.06004519    -0.10700
C2738       C  0.18769282  0.57777941  0.02305706    -0.01700
C2739       C  0.19118110  0.59405941  0.00086350    -0.11800
C2740       C  0.19093082  0.61336305  0.01542097    -0.10200
H2741       H  0.18073168  0.60300102  0.10359514     0.07700
H2742       H  0.18100236  0.56905260  0.07776242     0.11400
H2743       H  0.19417386  0.59188020  0.97213518     0.11100
H2744       H  0.19388321  0.62551567  0.99783990     0.07700
C2745       C  0.05102202  0.64719562  0.03797573    -0.11400
C2746       C  0.06036967  0.64005856  0.05814234     0.05700
C2747       C  0.06974688  0.65262805  0.06315385    -0.10200
C2748       C  0.06974625  0.67200117  0.04824077    -0.11900
C2749       C  0.06046226  0.67897672  0.02734352    -0.01600
C2750       C  0.05110514  0.66632993  0.02247855    -0.10800
C2751       C  0.06021829  0.61951854  0.07370652     0.05700
H2752       H  0.07702652  0.64749529  0.07883802     0.07600
H2753       H  0.07708769  0.68136191  0.05237073     0.11100
H2754       H  0.04380607  0.67123014  0.00662455     0.11400
H2755       H  0.04371128  0.63778515  0.03357910     0.07700
C2756       C  0.05099054  0.61293620  0.09525837    -0.11500
C2757       C  0.05058249  0.59345058  0.10905739    -0.10700
C2758       C  0.05930818  0.57992751  0.10110305    -0.01700
C2759       C  0.06853393  0.58648414  0.07934451    -0.11800
C2760       C  0.06903194  0.60615823  0.06608223    -0.10200
H2761       H  0.04411080  0.62295858  0.10164908     0.07700
H2762       H  0.04336452  0.58893764  0.12579942     0.11400
H2763       H  0.07541852  0.57648079  0.07295222     0.11100
H2764       H  0.07619873  0.61085133  0.04926996     0.07700
C2765       C  0.13933793  0.77331775  0.05495432    -0.11400
C2766       C  0.13290946  0.75617614  0.06222119     0.05700
C2767       C  0.13828723  0.73951255  0.07817966    -0.10200
C2768       C  0.14981813  0.74023034  0.08736972    -0.11900
C2769       C  0.15616441  0.75761098  0.08061910    -0.01600
C2770       C  0.15074318  0.77405500  0.06409556    -0.10800
C2771       C  0.12058461  0.75637788  0.05424874     0.05700
H2772       H  0.13353419  0.72611513  0.08426544     0.07600
H2773       H  0.15374174  0.72724998  0.09979794     0.11100
H2774       H  0.15531912  0.78764440  0.05799986     0.11400
H2775       H  0.13553492  0.78627158  0.04199187     0.07700
C2776       C  0.11432114  0.77349023  0.06283228    -0.11500
C2777       C  0.10290248  0.77457450  0.05407728    -0.10700
C2778       C  0.09730193  0.75851185  0.03664614    -0.01700
C2779       C  0.10348407  0.74116631  0.02850916    -0.11800
C2780       C  0.11503212  0.74010629  0.03727419    -0.10200
H2781       H  0.11825841  0.78613166  0.07661250    -0.37100
H2782       H  0.09845114  0.78810635  0.06129402     0.11400
H2783       H  0.09942238  0.72848850  0.01528657     0.11100
H2784       H  0.11965739  0.72674846  0.03014842     0.07700
C2785       C  0.05585581  0.76830263  0.69159403    -0.11400
C2786       C  0.06014958  0.75102754  0.70867299     0.05700
C2787       C  0.06350388  0.73511009  0.68529238    -0.10200
C2788       C  0.06285340  0.73663179  0.64582141    -0.11900
C2789       C  0.05896400  0.75419763  0.62879800    -0.01600
C2790       C  0.05531375  0.76990148  0.65213543    -0.10800
C2791       C  0.06110134  0.74956284  0.75065541     0.05700
H2792       H  0.06697770  0.72166598  0.69742288     0.07600
H2793       H  0.06586544  0.72437527  0.62864758     0.11100
H2794       H  0.05222764  0.78361992  0.63988302     0.11400
H2795       H  0.05294572  0.78064692  0.70871343     0.07700
C2796       C  0.06412795  0.76619471  0.77283568    -0.11500
C2797       C  0.06470016  0.76476697  0.81243961    -0.10700
C2798       C  0.06230447  0.74664943  0.83065018    -0.01700
C2799       C  0.05953554  0.72996905  0.80829735    -0.11800
C2800       C  0.05889578  0.73142973  0.76893946    -0.10200
H2801       H  0.06607277  0.78032210  0.75959743     0.07700
H2802       H  0.06684430  0.77790064  0.82876490     0.11400
H2803       H  0.05758344  0.71575983  0.82122031     0.11100
H2804       H  0.05637859  0.71840360  0.75292197     0.07700
C2805       C  0.05996560  0.73332770  0.26777537    -0.11400
C2806       C  0.06334916  0.75116442  0.25051562     0.05700
C2807       C  0.06709970  0.76695988  0.27362294    -0.10200
C2808       C  0.06723098  0.76501511  0.31321799    -0.11900
C2809       C  0.06367408  0.74719369  0.33037531    -0.01600
C2810       C  0.06016740  0.73133931  0.30706127    -0.10800
C2811       C  0.06262842  0.75322418  0.20863308     0.05700
H2812       H  0.06990488  0.78082108  0.26110368     0.07600
H2813       H  0.06998845  0.77749742  0.33034334     0.11100
H2814       H  0.05725453  0.71744062  0.31915637     0.11400
H2815       H  0.05683352  0.72100818  0.25095893     0.07700
C2816       C  0.06530002  0.73708353  0.18486400    -0.11500
C2817       C  0.06428447  0.73871580  0.14553762    -0.10700
C2818       C  0.06068481  0.75660524  0.12897401    -0.01700
C2819       C  0.05794872  0.77272549  0.15272751    -0.11800
C2820       C  0.05888674  0.77103648  0.19211295    -0.10200
H2821       H  0.06837097  0.72324482  0.19663402     0.07700
H2822       H  0.06666858  0.72614228  0.12807488     0.11400
H2823       H  0.05519993  0.78675885  0.14087001     0.11100
H2824       H  0.05657886  0.78362276  0.20963971     0.07700
C2825       C  0.06994958  0.65157009  0.56188377    -0.11400
C2826       C  0.06058552  0.63901811  0.55628301     0.05700
C2827       C  0.05138277  0.64615319  0.53535929    -0.10200
C2828       C  0.05157340  0.66525513  0.51985985    -0.11900
C2829       C  0.06090491  0.67786560  0.52533612    -0.01600
C2830       C  0.07006299  0.67091304  0.54685108    -0.10800
C2831       C  0.06029366  0.61848282  0.57187605     0.05700
H2832       H  0.04409651  0.63677176  0.53034161     0.07600
H2833       H  0.04437078  0.67016380  0.50351897     0.11100
H2834       H  0.07738347  0.68027157  0.55140784     0.11400
H2835       H  0.07712513  0.64646398  0.57812984     0.07700
C2836       C  0.06945391  0.60548863  0.56707779    -0.11500
C2837       C  0.06883761  0.58579466  0.58010876    -0.10700
C2838       C  0.05912231  0.57885090  0.59876660    -0.01700
C2839       C  0.05004277  0.59198304  0.60396794    -0.11800
C2840       C  0.05059425  0.61149872  0.59046873    -0.10200
H2841       H  0.07699847  0.61045981  0.55258899     0.07700
H2842       H  0.07600342  0.57608122  0.57600766     0.11400
H2843       H  0.04245074  0.58714052  0.61834191     0.11100
H2844       H  0.04344129  0.62122062  0.59479380     0.07700
C2845       C  0.11407720  0.77556349  0.55603765    -0.11400
C2846       C  0.12018021  0.75802220  0.54961049     0.05700
C2847       C  0.11445708  0.74114955  0.53586137    -0.10200
C2848       C  0.10284579  0.74189589  0.52847319    -0.11900
C2849       C  0.09673781  0.75950265  0.53497946    -0.01600
C2850       C  0.10252886  0.77629690  0.54888508    -0.10800
C2851       C  0.13249047  0.75766376  0.55710318     0.05700
H2852       H  0.11899291  0.72748075  0.53040270     0.07600
H2853       H  0.09865780  0.72869522  0.51779853     0.11100
H2854       H  0.09813196  0.79008721  0.55451877     0.11400
H2855       H  0.11823389  0.78871619  0.56709283     0.07700
C2856       C  0.13927586  0.77358307  0.54507695    -0.11500
C2857       C  0.15073498  0.77408521  0.55378197    -0.10700
C2858       C  0.15574408  0.75868000  0.57485520    -0.01700
C2859       C  0.14900504  0.74250887  0.58630120    -0.11800
C2860       C  0.13748071  0.74199321  0.57742818    -0.10200
H2861       H  0.13569288  0.78571978  0.52891033     0.07700
H2862       H  0.15565957  0.78667718  0.54406183     0.11400
H2863       H  0.15259514  0.73040657  0.60252052     0.11100
H2864       H  0.13240980  0.72961029  0.58726639     0.07700
C2865       C  0.24255893  0.23607171  0.97403111    -0.11400
C2866       C  0.24526422  0.25454235  0.99061584     0.05700
C2867       C  0.23742559  0.27014537  0.98747662    -0.10200
C2868       C  0.22706315  0.26718294  0.96925936    -0.11900
C2869       C  0.22421531  0.24849906  0.95388075    -0.01600
C2870       C  0.23216835  0.23306428  0.95609761    -0.10800
C2871       C  0.25617774  0.25742049  0.01115482     0.05700
H2872       H  0.23911818  0.28450935  0.00020324     0.07600
H2873       H  0.22109415  0.27934230  0.96863249     0.11100
H2874       H  0.23026921  0.21846205  0.94471554     0.11400
H2875       H  0.24846128  0.22383040  0.97500856     0.07700
C2876       C  0.26101380  0.24179499  0.03216211    -0.11500
C2877       C  0.27155374  0.24408408  0.04953868    -0.10700
C2878       C  0.27751918  0.26211811  0.04664507    -0.01700
C2879       C  0.27247801  0.27801096  0.02697342    -0.11800
C2880       C  0.26198005  0.27567790  0.00939929    -0.10200
H2881       H  0.25669383  0.22766752  0.03497745     0.07700
H2882       H  0.27515709  0.23151618  0.06438396     0.11400
H2883       H  0.27683408  0.29209544  0.02385089     0.11100
H2884       H  0.25861957  0.28800381  0.99325750     0.07700
C2885       C  0.19349648  0.35230567  0.96104557    -0.11400
C2886       C  0.18895100  0.36570161  0.93450386     0.05700
C2887       C  0.18358897  0.35821889  0.90208969    -0.10200
C2888       C  0.18276503  0.33778106  0.89618174    -0.11900
C2889       C  0.18738930  0.32428450  0.92237063    -0.01600
C2890       C  0.19280660  0.33172785  0.95486563    -0.10800
C2891       C  0.18918977  0.38743314  0.94117922     0.05700
H2892       H  0.17984164  0.36821049  0.88158452     0.07600
H2893       H  0.17856766  0.33256977  0.87075057     0.11100
H2894       H  0.19647389  0.32168667  0.97543190     0.11400
H2895       H  0.19765343  0.35778066  0.98634990     0.07700
C2896       C  0.18566440  0.39507923  0.97617385    -0.11500
C2897       C  0.18466596  0.41555874  0.98137813    -0.10700
C2898       C  0.18732206  0.42886756  0.95188003    -0.01700
C2899       C  0.19129091  0.42129768  0.91729649    -0.11800
C2900       C  0.19210958  0.40069989  0.91186213    -0.10200
H2901       H  0.18328455  0.38518513  0.99907364     0.07700
H2902       H  0.18173592  0.42099081  0.00857733     0.11400
H2903       H  0.19346781  0.43124119  0.89425708     0.11100
H2904       H  0.19491452  0.39509396  0.88464875     0.07700
C2905       C  0.24314555  0.23634144  0.47366377    -0.11400
C2906       C  0.24583538  0.25484267  0.49010829     0.05700
C2907       C  0.23810322  0.27056187  0.48611269    -0.10200
C2908       C  0.22780691  0.26765293  0.46742106    -0.11900
C2909       C  0.22492446  0.24890579  0.45245477    -0.01600
C2910       C  0.23282548  0.23339464  0.45522236    -0.10800
C2911       C  0.25663122  0.25767052  0.51134078     0.05700
H2912       H  0.23981112  0.28496695  0.49865075     0.07600
H2913       H  0.22187213  0.27985658  0.46637624     0.11100
H2914       H  0.23090174  0.21875122  0.44407553     0.11400
H2915       H  0.24898760  0.22402599  0.47529228     0.07700
C2916       C  0.26117875  0.24224152  0.53358968    -0.11500
C2917       C  0.27163850  0.24451059  0.55159753    -0.10700
C2918       C  0.27780183  0.26231623  0.54800542    -0.01700
C2919       C  0.27302171  0.27802072  0.52710212    -0.11800
C2920       C  0.26261194  0.27571379  0.50897195    -0.10200
H2921       H  0.25670292  0.22828690  0.53681010     0.07700
H2922       H  0.27504220  0.23208541  0.56738774     0.11400
H2923       H  0.27753258  0.29191220  0.52339464     0.11100
H2924       H  0.25946424  0.28786676  0.49188905     0.07700
C2925       C  0.18626173  0.35826170  0.39780800    -0.11400
C2926       C  0.18995801  0.36617950  0.43247025     0.05700
C2927       C  0.19319818  0.35301728  0.46160071    -0.10200
C2928       C  0.19254272  0.33236149  0.45630038    -0.11900
C2929       C  0.18846422  0.32456625  0.42200725    -0.01600
C2930       C  0.18547250  0.33773166  0.39272078    -0.10800
C2931       C  0.18963163  0.38802964  0.43884751     0.05700
H2932       H  0.19617722  0.35871311  0.48854677     0.07600
H2933       H  0.19497059  0.32253249  0.47920063     0.11100
H2934       H  0.18244807  0.33213879  0.36573687     0.11400
H2935       H  0.18359351  0.36794906  0.37499744     0.07700
C2936       C  0.19287680  0.40151059  0.41021712    -0.11500
C2937       C  0.19176345  0.42208843  0.41567305    -0.10700
C2938       C  0.18722980  0.42948864  0.44962643    -0.01700
C2939       C  0.18412687  0.41599319  0.47828714    -0.11800
C2940       C  0.18535502  0.39555531  0.47303615    -0.10200
H2941       H  0.19627264  0.39612732  0.38362079     0.07700
H2942       H  0.19429257  0.43215888  0.39324643     0.11400
H2943       H  0.18073431  0.42123814  0.50500234     0.11100
H2944       H  0.18263604  0.38560317  0.49540120     0.07700
C2945       C  0.19188977  0.22940014  0.60325888    -0.11400
C2946       C  0.19019656  0.24777730  0.62131611     0.05700
C2947       C  0.18760279  0.26450016  0.59888674    -0.10200
C2948       C  0.18706714  0.26295874  0.55929562    -0.11900
C2949       C  0.18902548  0.24462204  0.54132696    -0.01600
C2950       C  0.19125440  0.22782230  0.56391109    -0.10800
C2951       C  0.19135559  0.24944115  0.66325880     0.05700
H2952       H  0.18602511  0.27882205  0.61189270     0.07600
H2953       H  0.18533546  0.27618505  0.54278798     0.11100
H2954       H  0.19286027  0.21343537  0.55117763     0.11400
H2955       H  0.19406848  0.21626638  0.61939788     0.07700
C2956       C  0.18792862  0.23375171  0.68708318    -0.11500
C2957       C  0.18893009  0.23536625  0.72645575    -0.10700
C2958       C  0.19323811  0.25281861  0.74304226    -0.01700
C2959       C  0.19688519  0.26833888  0.71926419    -0.11800
C2960       C  0.19601174  0.26662713  0.67985980    -0.10200
H2961       H  0.18415301  0.22040160  0.67542764     0.07700
H2962       H  0.18586788  0.22325919  0.74394139     0.11400
H2963       H  0.20023233  0.28199902  0.73113365     0.11100
H2964       H  0.19898387  0.27880933  0.66242358     0.07700
C2965       C  0.19253961  0.26948359  0.17968118    -0.11400
C2966       C  0.18967315  0.25123303  0.16278620     0.05700
C2967       C  0.18779683  0.23460613  0.18623479    -0.10200
C2968       C  0.18867732  0.23622463  0.22563600    -0.11900
C2969       C  0.19136351  0.25455575  0.24256355    -0.01600
C2970       C  0.19335198  0.27113812  0.21908803    -0.10800
C2971       C  0.18895167  0.24934013  0.12085961     0.05700
H2972       H  0.18541352  0.22038194  0.17417673     0.07600
H2973       H  0.18690120  0.22325171  0.24285910     0.11100
H2974       H  0.19540169  0.28552000  0.23117586     0.11400
H2975       H  0.19423899  0.28247609  0.16244024     0.07700
C2976       C  0.18444853  0.26466972  0.09825567    -0.11500
C2977       C  0.18418317  0.26285869  0.05863461    -0.10700
C2978       C  0.18835750  0.24563121  0.04096775    -0.01700
C2979       C  0.19266839  0.23025331  0.06378200    -0.11800
C2980       C  0.19301002  0.23212578  0.10306287    -0.10200
H2981       H  0.18112336  0.27804216  0.11118732     0.07700
H2982       H  0.18082268  0.27497463  0.04189637     0.11400
H2983       H  0.19608312  0.21683168  0.05129566     0.11100
H2984       H  0.19673924  0.22021889  0.11944468     0.07700
C2985       C  0.05515780  0.35462242  0.66233444    -0.11400
C2986       C  0.05836224  0.36800730  0.69116753     0.05700
C2987       C  0.06283607  0.36053182  0.72502404    -0.10200
C2988       C  0.06453824  0.34016724  0.72942396    -0.11900
C2989       C  0.06165514  0.32678227  0.70028841    -0.01600
C2990       C  0.05668707  0.33410823  0.66701950    -0.10800
C2991       C  0.05828479  0.38973805  0.68462050     0.05700
H2992       H  0.06548224  0.37051711  0.74747956     0.07600
H2993       H  0.06820294  0.33489199  0.75568839     0.11100
H2994       H  0.05428671  0.32406928  0.64434753     0.11400
H2995       H  0.05165130  0.36008793  0.63597455     0.07700
C2996       C  0.06303404  0.39730018  0.65123533    -0.11500
C2997       C  0.06430175  0.41771987  0.64632178    -0.10700
C2998       C  0.06072905  0.43112210  0.67448262    -0.01700
C2999       C  0.05562521  0.42366579  0.70749273    -0.11800
C3000       C  0.05451623  0.40307180  0.71269938    -0.10200
H3001       H  0.06615609  0.38736809  0.62943872     0.07700
H3002       H  0.06813390  0.42301566  0.62032027     0.11400
H3003       H  0.05271887  0.43369011  0.72946644     0.11100
H3004       H  0.05081981  0.39753260  0.73873278     0.07700
C3005       C  0.11519398  0.27310111  0.80060308    -0.11400
C3006       C  0.12045385  0.25443406  0.80127901     0.05700
C3007       C  0.11392253  0.23731610  0.79422041    -0.10200
C3008       C  0.10236720  0.23900108  0.78598105    -0.11900
C3009       C  0.09717680  0.25782471  0.78496879    -0.01600
C3010       C  0.10377731  0.27478518  0.79245654    -0.10800
C3011       C  0.13276134  0.25344199  0.80873643     0.05700
H3012       H  0.11777694  0.22272969  0.79453008     0.07600
H3013       H  0.09750138  0.22562796  0.78070058     0.11100
H3014       H  0.10011674  0.28952984  0.79233740     0.11400
H3015       H  0.11992305  0.28653548  0.80671924     0.07700
C3016       C  0.13989909  0.26761566  0.79197636    -0.11500
C3017       C  0.15123754  0.26866998  0.80178124    -0.10700
C3018       C  0.15583828  0.25542557  0.82836071    -0.01700
C3019       C  0.14886873  0.24052527  0.84387451    -0.11800
C3020       C  0.13739112  0.23957385  0.83419534    -0.10200
H3021       H  0.13665101  0.27817984  0.77155277     0.07700
H3022       H  0.15640380  0.28001554  0.78853912     0.11400
H3023       H  0.15220946  0.22998482  0.86416062     0.11100
H3024       H  0.13207297  0.22850105  0.84757399     0.07700
C3025       C  0.06441172  0.36026766  0.22827357    -0.11400
C3026       C  0.06110765  0.36777673  0.19292523     0.05700
C3027       C  0.05832606  0.35433649  0.16367492    -0.10200
C3028       C  0.05898864  0.33374696  0.16960890    -0.11900
C3029       C  0.06267273  0.32630910  0.20464621    -0.01600
C3030       C  0.06526630  0.33978520  0.23397316    -0.10800
C3031       C  0.06129815  0.38953580  0.18600309     0.05700
H3032       H  0.05569169  0.35978978  0.13617809     0.07600
H3033       H  0.05688182  0.32369054  0.14663766     0.11100
H3034       H  0.06799246  0.33447130  0.26147558     0.11400
H3035       H  0.06669027  0.37026344  0.25116030     0.07700
C3036       C  0.05670384  0.40301639  0.21237704    -0.11500
C3037       C  0.05728136  0.42359239  0.20590965    -0.10700
C3038       C  0.06262472  0.43099106  0.17325442    -0.01700
C3039       C  0.06729240  0.41742021  0.14722162    -0.11800
C3040       C  0.06658537  0.39698052  0.15342445    -0.10200
H3041       H  0.05257937  0.39760952  0.23777450     0.07700
H3042       H  0.05357597  0.43366764  0.22637371     0.11400
H3043       H  0.07143639  0.42257303  0.12166645     0.11100
H3044       H  0.07036102  0.38696399  0.13298958     0.07700
C3045       C  0.06348179  0.23514407  0.01935461    -0.11400
C3046       C  0.06077119  0.25365126  0.00324160     0.05700
C3047       C  0.05903904  0.27001768  0.02753779    -0.10200
C3048       C  0.05998676  0.26790212  0.06688546    -0.11900
C3049       C  0.06251816  0.24931325  0.08285371    -0.01600
C3050       C  0.06426337  0.23297629  0.05865968    -0.10800
C3051       C  0.06008001  0.25595434  0.96128782     0.05700
H3052       H  0.05673923  0.28441597  0.01623051     0.07600
H3053       H  0.05834129  0.28064800  0.08486881     0.11100
H3054       H  0.06619316  0.21844004  0.07017130     0.11400
H3055       H  0.06510869  0.22231586  0.00160708     0.07700
C3056       C  0.06392729  0.27350871  0.94392909    -0.11500
C3057       C  0.06385643  0.27541228  0.90454765    -0.10700
C3058       C  0.06006984  0.25972244  0.88136299    -0.01700
C3059       C  0.05605206  0.24225188  0.89854343    -0.11800
C3060       C  0.05596841  0.24045028  0.93811093    -0.10200
H3061       H  0.06735123  0.28560451  0.96067482     0.07700
H3062       H  0.06715117  0.28899190  0.89222374     0.11400
H3063       H  0.05303681  0.22995162  0.88142094     0.11100
H3064       H  0.05273100  0.22686105  0.95051703     0.07700
C3065       C  0.05758560  0.23031970  0.52188235    -0.11400
C3066       C  0.06032906  0.24813642  0.50327121     0.05700
C3067       C  0.06385868  0.26456468  0.52514137    -0.10200
C3068       C  0.06435805  0.26332141  0.56474880    -0.11900
C3069       C  0.06140174  0.24557666  0.58334790    -0.01600
C3070       C  0.05814307  0.22903741  0.56133080    -0.10800
C3071       C  0.05935467  0.24962486  0.46129805     0.05700
H3072       H  0.06624117  0.27841539  0.51164290     0.07600
H3073       H  0.06691220  0.27632755  0.58077794     0.11100
H3074       H  0.05574335  0.21512859  0.57458933     0.11400
H3075       H  0.05470196  0.21746697  0.50604877     0.07700
C3076       C  0.06231441  0.23351478  0.43778397    -0.11500
C3077       C  0.06174791  0.23522921  0.39828228    -0.10700
C3078       C  0.05830569  0.25314839  0.38145297    -0.01700
C3079       C  0.05500260  0.26901138  0.40496370    -0.11800
C3080       C  0.05547644  0.26724180  0.44437516    -0.10200
H3081       H  0.06543396  0.21978310  0.44984582     0.07700
H3082       H  0.06448681  0.22283331  0.38094974     0.11400
H3083       H  0.05225955  0.28299755  0.39288030     0.11100
H3084       H  0.05285880  0.27974978  0.46160320     0.07700
C3085       C  0.11329174  0.23512215  0.29502035    -0.11400
C3086       C  0.11944025  0.25173903  0.30779332     0.05700
C3087       C  0.11380993  0.26986751  0.31300725    -0.10200
C3088       C  0.10240717  0.27164912  0.30465029    -0.11900
C3089       C  0.09621990  0.25530800  0.29090940    -0.01600
C3090       C  0.10175796  0.23690787  0.28650625    -0.10800
C3091       C  0.13179808  0.25107855  0.31410460     0.05700
H3092       H  0.11829016  0.28282934  0.32345043     0.07600
H3093       H  0.09845685  0.28598368  0.30893998     0.11100
H3094       H  0.09720754  0.22396819  0.27635720     0.11400
H3095       H  0.11745522  0.22097563  0.29074805     0.07700
C3096       C  0.13691965  0.23638729  0.33666220    -0.11500
C3097       C  0.14843732  0.23781611  0.34589626    -0.10700
C3098       C  0.15492257  0.25399663  0.33276378    -0.01700
C3099       C  0.14981570  0.26800725  0.30875209    -0.11800
C3100       C  0.13846516  0.26651515  0.29946581    -0.10200
H3101       H  0.13194570  0.22429721  0.34822593     0.07700
H3102       H  0.15217813  0.22662612  0.36400217     0.11400
H3103       H  0.15458899  0.28034295  0.29716122     0.11100
H3104       H  0.13480532  0.27777207  0.28129267     0.07700
C3105       C  0.05832695  0.90321736  0.96188931    -0.11400
C3106       C  0.06142588  0.89039599  0.93199782     0.05700
C3107       C  0.06478816  0.89870879  0.89735285    -0.10200
C3108       C  0.06538197  0.91933736  0.89298331    -0.11900
C3109       C  0.06246681  0.93222412  0.92295245    -0.01600
C3110       C  0.05872929  0.92396182  0.95728681    -0.10800
C3111       C  0.06194039  0.86849386  0.93764334     0.05700
H3112       H  0.06731738  0.88923675  0.87399417     0.07600
H3113       H  0.06816903  0.92521971  0.86595739     0.11100
H3114       H  0.05636736  0.93349719  0.98074190     0.11400
H3115       H  0.05565004  0.89715690  0.98889030     0.07700
C3116       C  0.06730427  0.86084754  0.96986214    -0.11500
C3117       C  0.06834388  0.84035843  0.97494927    -0.10700
C3118       C  0.06392112  0.82686143  0.94819455    -0.01700
C3119       C  0.05847478  0.83444067  0.91590824    -0.11800
C3120       C  0.05759754  0.85510616  0.91048756    -0.10200
H3121       H  0.07089301  0.87076876  0.99089918     0.07700
H3122       H  0.07255033  0.83508978  0.00027188     0.11400
H3123       H  0.05496456  0.82444137  0.89486919     0.11100
H3124       H  0.05343498  0.86064632  0.88529885     0.07700
C3125       C  0.05140684  0.11517080  0.85363094    -0.11400
C3126       C  0.05983405  0.12113603  0.82824094     0.05700
C3127       C  0.06801590  0.10734698  0.81669376    -0.10200
C3128       C  0.06768761  0.08772215  0.83012401    -0.11900
C3129       C  0.05926885  0.08171886  0.85579438    -0.01600
C3130       C  0.05117591  0.09573367  0.86751889    -0.10800
C3131       C  0.05973690  0.14152225  0.81272528     0.05700
H3132       H  0.07453092  0.11169950  0.79682147     0.07600
H3133       H  0.07405634  0.07732064  0.82069241     0.11100
H3134       H  0.04458548  0.09166485  0.88731826     0.11400
H3135       H  0.04502276  0.12561919  0.86280736     0.07700
C3136       C  0.05050034  0.14793899  0.79125825    -0.11500
C3137       C  0.05036049  0.16705479  0.77581687    -0.10700
C3138       C  0.05937021  0.18028617  0.78216001    -0.01700
C3139       C  0.06850976  0.17398611  0.80450543    -0.11800
C3140       C  0.06873953  0.15465524  0.81935687    -0.10200
H3141       H  0.04347403  0.13799632  0.78592525     0.07700
H3142       H  0.04318624  0.17146236  0.75882810     0.11400
H3143       H  0.07557661  0.18383533  0.80979399     0.11100
H3144       H  0.07589738  0.14996199  0.83614849     0.07700
C3145       C  0.05774327  0.85423911  0.40851258    -0.11400
C3146       C  0.05879817  0.86746113  0.43937737     0.05700
C3147       C  0.06034794  0.85970130  0.47586658    -0.10200
C3148       C  0.06139372  0.83924728  0.48126041    -0.11900
C3149       C  0.06071466  0.82602939  0.45041262    -0.01600
C3150       C  0.05854514  0.83360897  0.41407180    -0.10800
C3151       C  0.05937518  0.88928277  0.43353481     0.05700
H3152       H  0.06127719  0.86952851  0.50004585     0.07600
H3153       H  0.06291552  0.83374294  0.50967574     0.11100
H3154       H  0.05793999  0.82369418  0.38991361     0.11400
H3155       H  0.05650176  0.85991211  0.38007655     0.07700
C3156       C  0.06669311  0.89707591  0.40609903    -0.11500
C3157       C  0.06812260  0.91759230  0.40249738    -0.10700
C3158       C  0.06217301  0.93088974  0.42598024    -0.01700
C3159       C  0.05472603  0.92312158  0.45321302    -0.11800
C3160       C  0.05340499  0.90247421  0.45714243    -0.10200
H3161       H  0.07154729  0.88725590  0.38804425     0.07700
H3162       H  0.07389262  0.92302782  0.38105296     0.11400
H3163       H  0.04995920  0.93296693  0.47146148     0.11100
H3164       H  0.04772232  0.89678017  0.47860777     0.07700
C3165       C  0.06039438  0.99016131  0.60433544    -0.11400
C3166       C  0.05908685  0.00748377  0.62645731     0.05700
C3167       C  0.05856327  0.02596568  0.60810350    -0.10200
C3168       C  0.05921323  0.02717495  0.56876117    -0.11900
C3169       C  0.06033689  0.00992340  0.54645452    -0.01600
C3170       C  0.06101531  0.99136794  0.56467407    -0.10800
C3171       C  0.05816268  0.00650179  0.66846928     0.05700
H3172       H  0.05737194  0.03956273  0.62408912     0.07600
H3173       H  0.05863788  0.04174175  0.55580287     0.11100
H3174       H  0.06181753  0.97779688  0.54831352     0.11400
H3175       H  0.06096838  0.97569168  0.61766546     0.07700
C3176       C  0.05217833  0.99099526  0.68611371    -0.11500
C3177       C  0.05146220  0.99003201  0.72563647    -0.10700
C3178       C  0.05660935  0.00466720  0.74835661    -0.01700
C3179       C  0.06230032  0.02048543  0.73076239    -0.11800
C3180       C  0.06314229  0.02131184  0.69128882    -0.10200
H3181       H  0.04805953  0.97957835  0.66939242     0.07700
H3182       H  0.04705277  0.97761388  0.73847124     0.11400
H3183       H  0.06657035  0.03171858  0.74754105     0.11100
H3184       H  0.06797425  0.03329118  0.67869994     0.07700
C3185       C  0.05727739  0.98700592  0.18540545    -0.11400
C3186       C  0.06031748  0.00505292  0.16816105     0.05700
C3187       C  0.06280998  0.02157031  0.19131918    -0.10200
C3188       C  0.06242499  0.01998246  0.23081787    -0.11900
C3189       C  0.05962614  0.00179392  0.24801750    -0.01600
C3190       C  0.05696037  0.98538013  0.22484709    -0.10800
C3191       C  0.06070228  0.00676170  0.12619159     0.05700
H3192       H  0.06531744  0.03563735  0.17892870     0.07600
H3193       H  0.06466972  0.03282141  0.24784056     0.11100
H3194       H  0.05474641  0.97114392  0.23718693     0.11400
H3195       H  0.05508682  0.97413560  0.16841000     0.07700
C3196       C  0.06475865  0.99109472  0.10341376    -0.11500
C3197       C  0.06487090  0.99279549  0.06379047    -0.10700
C3198       C  0.06096502  0.01022894  0.04626450    -0.01700
C3199       C  0.05700910  0.02588192  0.06923859    -0.11800
C3200       C  0.05684869  0.02414369  0.10855966    -0.10200
H3201       H  0.06790918  0.97757112  0.11622280     0.07700
H3202       H  0.06794033  0.98046181  0.04695179     0.11400
H3203       H  0.05383988  0.03951013  0.05687927     0.11100
H3204       H  0.05347313  0.03632494  0.12512892     0.07700
C3205       C  0.06763777  0.10395734  0.30881331    -0.11400
C3206       C  0.05988298  0.11821556  0.32147218     0.05700
C3207       C  0.05204566  0.11308261  0.34948213    -0.10200
C3208       C  0.05198829  0.09394223  0.36491300    -0.11900
C3209       C  0.05971723  0.07947582  0.35235643    -0.01600
C3210       C  0.06753602  0.08469141  0.32402624    -0.10800
C3211       C  0.05984482  0.13842529  0.30529493     0.05700
H3212       H  0.04600612  0.12394528  0.35951242     0.07600
H3213       H  0.04586003  0.09049195  0.38671284     0.11100
H3214       H  0.07360191  0.07394087  0.31378543     0.11400
H3215       H  0.07372118  0.10773376  0.28705555     0.07700
C3216       C  0.06758921  0.15275377  0.31792858    -0.11500
C3217       C  0.06742778  0.17202689  0.30288239    -0.10700
C3218       C  0.05957152  0.17720359  0.27467507    -0.01700
C3219       C  0.05179310  0.16273383  0.26228545    -0.11800
C3220       C  0.05189649  0.14355398  0.27763442    -0.10200
H3221       H  0.07372301  0.14901854  0.33951587     0.07700
H3222       H  0.07352521  0.18279994  0.31304724     0.11400
H3223       H  0.04561406  0.16621748  0.24070299     0.11100
H3224       H  0.04582241  0.13265302  0.26777852     0.07700
C3225       C  0.24151173  0.01818513  0.65440708    -0.11400
C3226       C  0.24402198  0.00009593  0.63614042     0.05700
C3227       C  0.23592499  0.98475973  0.63708573    -0.10200
C3228       C  0.22546608  0.98767265  0.65456048    -0.11900
C3229       C  0.22277354  0.00606290  0.67127825    -0.01600
C3230       C  0.23100578  0.02116483  0.67158330    -0.10800
C3231       C  0.25491511  0.99734775  0.61554480     0.05700
H3232       H  0.23747954  0.97071295  0.62299907     0.07600
H3233       H  0.21927695  0.97581605  0.65326264     0.11100
H3234       H  0.22921949  0.03550885  0.68422640     0.11400
H3235       H  0.24762442  0.03016815  0.65505457     0.07700
C3236       C  0.25987842  0.01313285  0.59520124    -0.11500
C3237       C  0.27020881  0.01062129  0.57652914    -0.10700
C3238       C  0.27582883  0.99222493  0.57756242    -0.01700
C3239       C  0.27071307  0.97632148  0.59710358    -0.11800
C3240       C  0.26043237  0.97886029  0.61588040    -0.10200
H3241       H  0.25578145  0.02748428  0.59369331     0.07700
H3242       H  0.27391646  0.02324810  0.56205241     0.11400
H3243       H  0.27483376  0.96199949  0.59902921     0.11100
H3244       H  0.25697035  0.96643366  0.63159148     0.07700
C3245       C  0.19080178  0.90225343  0.66016684    -0.11400
C3246       C  0.18787528  0.88891469  0.68936957     0.05700
C3247       C  0.18433935  0.89649474  0.72440224    -0.10200
C3248       C  0.18347174  0.91697832  0.72992773    -0.11900
C3249       C  0.18629413  0.93037584  0.70075050    -0.01600
C3250       C  0.19013908  0.92285804  0.66595145    -0.10800
C3251       C  0.18779169  0.86715935  0.68271325     0.05700
H3252       H  0.18192977  0.88654484  0.74717884     0.07600
H3253       H  0.18059406  0.92235137  0.75723241     0.11100
H3254       H  0.19240089  0.93285887  0.64309407     0.11400
H3255       H  0.19357585  0.89670212  0.63287694     0.07700
C3256       C  0.18239840  0.85951600  0.65051745    -0.11500
C3257       C  0.18180830  0.83905276  0.64453559    -0.10700
C3258       C  0.18670579  0.82565880  0.67041023    -0.01700
C3259       C  0.19214544  0.83327422  0.70271979    -0.11800
C3260       C  0.19260024  0.85388626  0.70897888    -0.10200
H3261       H  0.17846276  0.86939822  0.63021915     0.07700
H3262       H  0.17756378  0.83374936  0.61926381     0.11400
H3263       H  0.19602406  0.82334753  0.72304343     0.11100
H3264       H  0.19679460  0.85949220  0.73410880     0.07700
C3265       C  0.19994024  0.14564016  0.83148783    -0.11400
C3266       C  0.18997927  0.13853873  0.81476858     0.05700
C3267       C  0.18046195  0.15085065  0.81343327    -0.10200
C3268       C  0.18090871  0.17003715  0.82867572    -0.11900
C3269       C  0.19079851  0.17696579  0.84623617    -0.01600
C3270       C  0.20031248  0.16462204  0.84747222    -0.10800
C3271       C  0.18957899  0.11821262  0.79911700     0.05700
H3272       H  0.17272726  0.14564399  0.80042214     0.07600
H3273       H  0.17345597  0.17928876  0.82751280     0.11100
H3274       H  0.20804809  0.16967740  0.86069037     0.11400
H3275       H  0.20736210  0.13631603  0.83285445     0.07700
C3276       C  0.19788263  0.11197643  0.77353641    -0.11500
C3277       C  0.19789418  0.09250605  0.75995668    -0.10700
C3278       C  0.18967832  0.07878730  0.77208713    -0.01700
C3279       C  0.18127877  0.08511198  0.79744598    -0.11800
C3280       C  0.18119197  0.10474468  0.81067432    -0.10200
H3281       H  0.20436659  0.12220990  0.76407201     0.07700
H3282       H  0.20442940  0.08816513  0.74019093     0.11400
H3283       H  0.17479484  0.07491803  0.80702109     0.11100
H3284       H  0.17474048  0.10930919  0.83057652     0.07700
C3285       C  0.11106592  0.98675626  0.80629082    -0.11400
C3286       C  0.11761018  0.00352370  0.81530523     0.05700
C3287       C  0.11237012  0.01987767  0.83291706    -0.10200
C3288       C  0.10086745  0.01906779  0.84243299    -0.11900
C3289       C  0.09446276  0.00189323  0.83441431    -0.01600
C3290       C  0.09972360  0.98589800  0.81586209    -0.10800
C3291       C  0.12991879  0.00306298  0.80754276     0.05700
H3292       H  0.11721416  0.03301227  0.84020341     0.07600
H3293       H  0.09703655  0.03172899  0.85635192     0.11100
H3294       H  0.09508446  0.97252314  0.80863632     0.11400
H3295       H  0.11474755  0.97411754  0.79183379     0.07700
C3296       C  0.13587684  0.98538438  0.81410890    -0.11500
C3297       C  0.14721156  0.98386145  0.80472457    -0.10700
C3298       C  0.15305362  0.00007156  0.78890252    -0.01700
C3299       C  0.14721909  0.01804353  0.78313613    -0.11800
C3300       C  0.13572728  0.01952811  0.79241163    -0.10200
H3301       H  0.13174976  0.97258127  0.82662250     0.07700
H3302       H  0.15140378  0.96985777  0.81017393     0.11400
H3303       H  0.15150413  0.03087189  0.77135347     0.11100
H3304       H  0.13134049  0.03334419  0.78699704     0.07700
C3305       C  0.26101516  0.97737987  0.11433087    -0.11400
C3306       C  0.25596753  0.99622774  0.11714952     0.05700
C3307       C  0.26138276  0.01256724  0.10004024    -0.10200
C3308       C  0.27172845  0.01022068  0.08152831    -0.11900
C3309       C  0.27692618  0.99145768  0.07959715    -0.01600
C3310       C  0.27134633  0.97501962  0.09578712    -0.10800
C3311       C  0.24509011  0.99882843  0.13769909     0.05700
H3312       H  0.25763238  0.02722847  0.10101259     0.07600
H3313       H  0.27579539  0.02324349  0.06963889     0.11100
H3314       H  0.27513254  0.96037759  0.09526518     0.11400
H3315       H  0.25714745  0.96450377  0.12745908     0.07700
C3316       C  0.23652928  0.98439969  0.13481469    -0.11500
C3317       C  0.22609167  0.98731432  0.15233912    -0.10700
C3318       C  0.22390480  0.00481538  0.17293748    -0.01700
C3319       C  0.23258149  0.01894971  0.17694466    -0.11800
C3320       C  0.24306757  0.01594209  0.15969489    -0.10200
H3321       H  0.23773068  0.97116450  0.11777038     0.07700
H3322       H  0.21954290  0.97627389  0.14812108     0.11400
H3323       H  0.23117073  0.03259400  0.19259608     0.11100
H3324       H  0.24955310  0.02715610  0.16320239     0.07700
C3325       C  0.19390510  0.85371280  0.21081931    -0.11400
C3326       C  0.18949545  0.86702999  0.18382426     0.05700
C3327       C  0.18484601  0.85943246  0.15031281    -0.10200
C3328       C  0.18453083  0.83899212  0.14380726    -0.11900
C3329       C  0.18899491  0.82553413  0.17042426    -0.01600
C3330       C  0.19377660  0.83309509  0.20397558    -0.10800
C3331       C  0.18924942  0.88879286  0.19066005     0.05700
H3332       H  0.18125559  0.86934575  0.12935081     0.07600
H3333       H  0.18081909  0.83374078  0.11756417     0.11100
H3334       H  0.19728449  0.82311346  0.22495711     0.11400
H3335       H  0.19751538  0.85928947  0.23697762     0.07700
C3336       C  0.18438913  0.89633561  0.22388249    -0.11500
C3337       C  0.18316028  0.91684374  0.22883516    -0.10700
C3338       C  0.18692806  0.93031429  0.20093296    -0.01700
C3339       C  0.19205143  0.92277818  0.16804519    -0.11800
C3340       C  0.19309068  0.90218081  0.16278839    -0.10200
H3341       H  0.18125181  0.88632900  0.24554505     0.07700
H3342       H  0.17928248  0.92215809  0.25473347     0.11400
H3343       H  0.19510839  0.93276628  0.14623683     0.11100
H3344       H  0.19687055  0.89665866  0.13688324     0.07700
C3345       C  0.18902763  0.98670298  0.94350115    -0.11400
C3346       C  0.18897294  0.00566560  0.96018223     0.05700
C3347       C  0.18965016  0.02250060  0.93651690    -0.10200
C3348       C  0.19016199  0.02038087  0.89701925    -0.11900
C3349       C  0.19006480  0.00136906  0.88035111    -0.01600
C3350       C  0.18958367  0.98457647  0.90417463    -0.10800
C3351       C  0.18848749  0.00775245  0.00214958     0.05700
H3352       H  0.18954556  0.03734062  0.94849849     0.07600
H3353       H  0.19041407  0.03362670  0.87956019     0.11100
H3354       H  0.18942016  0.96967773  0.89245555     0.11400
H3355       H  0.18872974  0.97343900  0.96089627     0.07700
C3356       C  0.18167911  0.99505562  0.02427959    -0.11500
C3357       C  0.18174596  0.99640148  0.06395454    -0.10700
C3358       C  0.18853265  0.01061398  0.08221675    -0.01700
C3359       C  0.19516053  0.02351708  0.05998591    -0.11800
C3360       C  0.19516477  0.02206345  0.02052440    -0.10200
H3361       H  0.17630461  0.98405803  0.01090054     0.07700
H3362       H  0.17649915  0.98636452  0.08029322     0.11400
H3363       H  0.20059864  0.03450220  0.07313624     0.11100
H3364       H  0.20064309  0.03182485  0.00444617     0.07700
C3365       C  0.19244300  0.98578966  0.44349607    -0.11400
C3366       C  0.18893741  0.00385456  0.45975009     0.05700
C3367       C  0.18682948  0.02013983  0.43572725    -0.10200
C3368       C  0.18812036  0.01838134  0.39651999    -0.11900
C3369       C  0.19139106  0.00020597  0.38023062    -0.01600
C3370       C  0.19360042  0.98395650  0.40419667    -0.10800
C3371       C  0.18776542  0.00591415  0.50158706     0.05700
H3372       H  0.18391830  0.03418502  0.44708843     0.07600
H3373       H  0.18613632  0.03109130  0.37888979     0.11100
H3374       H  0.19606612  0.96969724  0.39256159     0.11400
H3375       H  0.19435746  0.97305783  0.46112147     0.07700
C3376       C  0.18397808  0.98996536  0.52422230    -0.11500
C3377       C  0.18351606  0.99180049  0.56378765    -0.10700
C3378       C  0.18672462  0.00968909  0.58143834    -0.01700
C3379       C  0.19014006  0.02578246  0.55861341    -0.11800
C3380       C  0.19072719  0.02387707  0.51935853    -0.10200
H3381       H  0.18142252  0.97602211  0.51140952     0.07700
H3382       H  0.18083074  0.97914072  0.58052108     0.11400
H3383       H  0.19274703  0.03978789  0.57109288     0.11100
H3384       H  0.19387303  0.03636349  0.50308794     0.07700
C3385       C  0.18208438  0.14922130  0.31864092    -0.11400
C3386       C  0.19144732  0.13684106  0.32438821     0.05700
C3387       C  0.20096893  0.14444601  0.34302864    -0.10200
C3388       C  0.20114377  0.16408555  0.35578237    -0.11900
C3389       C  0.19186177  0.17662239  0.34962910    -0.01600
C3390       C  0.18232607  0.16903688  0.33087293    -0.10800
C3391       C  0.19153415  0.11627365  0.30961165     0.05700
H3392       H  0.20826008  0.13512340  0.34789470     0.07600
H3393       H  0.20859546  0.16949879  0.37027115     0.11100
H3394       H  0.17502210  0.17833515  0.32610496     0.11400
H3395       H  0.17468478  0.14365967  0.30405325     0.07700
C3396       C  0.18257561  0.10315117  0.31703998    -0.11500
C3397       C  0.18268513  0.08382116  0.30223047    -0.10700
C3398       C  0.19166217  0.07748227  0.27920817    -0.01700
C3399       C  0.20065716  0.09062135  0.27220807    -0.11800
C3400       C  0.20062414  0.10976363  0.28746339    -0.10200
H3401       H  0.17552520  0.10785837  0.33434326     0.07700
H3402       H  0.17564077  0.07401061  0.30805926     0.11400
H3403       H  0.20771255  0.08615727  0.25469693     0.11100
H3404       H  0.20759583  0.11967629  0.28124030     0.07700
C3405       C  0.13917048  0.98924643  0.33338160    -0.11400
C3406       C  0.13219560  0.00395934  0.31785494     0.05700
C3407       C  0.13685235  0.01770628  0.29212064    -0.10200
C3408       C  0.14818571  0.01608670  0.28088918    -0.11900
C3409       C  0.15495513  0.00062069  0.29510335    -0.01600
C3410       C  0.15034905  0.98753582  0.32206072    -0.10800
C3411       C  0.11994677  0.00342732  0.32636170     0.05700
H3412       H  0.13163603  0.02917488  0.27968200     0.07600
H3413       H  0.15155264  0.02654235  0.26043471     0.11100
H3414       H  0.15538901  0.97580091  0.33444423     0.11400
H3415       H  0.13588511  0.97872340  0.35388066     0.07700
C3416       C  0.11432700  0.98505200  0.32539986    -0.11500
C3417       C  0.10292259  0.98372235  0.33398471    -0.10700
C3418       C  0.09669931  0.00076268  0.34367545    -0.01700
C3419       C  0.10227871  0.01929294  0.34467718    -0.11800
C3420       C  0.11382413  0.02062557  0.33588459    -0.10200
H3421       H  0.11876311  0.97159225  0.31755721     0.07700
H3422       H  0.09896730  0.96919636  0.33266312     0.11400
H3423       H  0.09771216  0.03271896  0.35178133     0.11100
H3424       H  0.11798566  0.03497622  0.33693262     0.07700
C3425       C  0.81637589  0.02038682  0.55574848    -0.11400
C3426       C  0.81275545  0.00292430  0.53765625     0.05700
C3427       C  0.80887055  0.98694293  0.56002528    -0.10200
C3428       C  0.80859349  0.98851136  0.59968253    -0.11900
C3429       C  0.81216218  0.00611887  0.61761932    -0.01600
C3430       C  0.81605084  0.02199011  0.59507336    -0.10800
C3431       C  0.81312004  0.00157496  0.49561611     0.05700
H3432       H  0.80592174  0.97332781  0.54686856     0.07600
H3433       H  0.80557897  0.97600745  0.61621265     0.11100
H3434       H  0.81897730  0.03574082  0.60777790     0.11400
H3435       H  0.81964089  0.03279905  0.53951562     0.07700
C3436       C  0.81039633  0.01817510  0.47309279    -0.11500
C3437       C  0.81075453  0.01698986  0.43353580    -0.10700
C3438       C  0.81376993  0.99912777  0.41557522    -0.01700
C3439       C  0.81667142  0.98262821  0.43813771    -0.11800
C3440       C  0.81635666  0.98384553  0.47765916    -0.10200
H3441       H  0.80771797  0.03199413  0.48602969     0.07700
H3442       H  0.80831594  0.02987661  0.41706759     0.11400
H3443       H  0.81902197  0.96859884  0.42527768     0.11100
H3444       H  0.81869899  0.97091536  0.49415077     0.07700
C3445       C  0.81060409  0.98725645  0.06014043    -0.11400
C3446       C  0.81118427  0.00443458  0.03732412     0.05700
C3447       C  0.81091140  0.02315942  0.05497379    -0.10200
C3448       C  0.81019931  0.02474330  0.09427183    -0.11900
C3449       C  0.80985581  0.00764820  0.11723112    -0.01600
C3450       C  0.80995855  0.98884561  0.09972838    -0.10800
C3451       C  0.81210900  0.00304692  0.99531999     0.05700
H3452       H  0.81153724  0.03670317  0.03849863     0.07600
H3453       H  0.81017083  0.03949111  0.10668238     0.11100
H3454       H  0.80976677  0.97538709  0.11659871     0.11400
H3455       H  0.81062533  0.97258533  0.04743266     0.07700
C3456       C  0.81847747  0.98790809  0.97809117    -0.11500
C3457       C  0.81913638  0.98653714  0.93856816    -0.10700
C3458       C  0.81358383  0.00044952  0.91546636    -0.01700
C3459       C  0.80749080  0.01588617  0.93262842    -0.11800
C3460       C  0.80667577  0.01706572  0.97204629    -0.10200
H3461       H  0.82295036  0.97710415  0.99511594     0.07700
H3462       H  0.82387481  0.97444111  0.92605624     0.11400
H3463       H  0.80292111  0.02656129  0.91555992     0.11100
H3464       H  0.80151740  0.02869564  0.98422109     0.07700
C3465       C  0.98768942  0.98071539  0.50556679    -0.11400
C3466       C  0.99345265  0.99900531  0.50583804     0.05700
C3467       C  0.98893204  0.01479695  0.52724354    -0.10200
C3468       C  0.97876971  0.01246870  0.54706606    -0.11900
C3469       C  0.97291022  0.99424733  0.54614469    -0.01600
C3470       C  0.97760654  0.97834510  0.52553475    -0.10800
C3471       C  0.00422542  0.00142776  0.48446908     0.05700
H3472       H  0.99325112  0.02898726  0.52871982     0.07600
H3473       H  0.97537647  0.02508703  0.56236142     0.11100
H3474       H  0.97328393  0.96416789  0.52362598     0.11400
H3475       H  0.99081148  0.96830401  0.48906724     0.07700
C3476       C  0.01207140  0.98578938  0.48284099    -0.11500
C3477       C  0.02256940  0.98849493  0.46557842    -0.10700
C3478       C  0.02555812  0.00698426  0.44982934    -0.01700
C3479       C  0.01749114  0.02228928  0.44953214    -0.11800
C3480       C  0.00693724  0.01951950  0.46653901    -0.10200
H3481       H  0.01033896  0.97170039  0.49654010     0.07700
H3482       H  0.02859569  0.97643153  0.46666743     0.11400
H3483       H  0.01949252  0.03669048  0.43748139     0.11100
H3484       H  0.00098891  0.03170700  0.46634838     0.07700
C3485       C  0.86270504  0.99239256  0.69767045    -0.11400
C3486       C  0.86985434  0.00812478  0.70865428     0.05700
C3487       C  0.86524253  0.02389282  0.72987037    -0.10200
C3488       C  0.85370310  0.02457272  0.73765211    -0.11900
C3489       C  0.84649292  0.00933032  0.72503535    -0.01600
C3490       C  0.85116546  0.99293733  0.70596957    -0.10800
C3491       C  0.88188754  0.00874092  0.69626505     0.05700
H3492       H  0.87051640  0.03597298  0.73987550     0.07600
H3493       H  0.85037952  0.03728853  0.75284369     0.11100
H3494       H  0.84581320  0.98101022  0.69572139     0.11400
H3495       H  0.86590408  0.98007455  0.68110217     0.07700
C3496       C  0.88835038  0.99126294  0.69302195    -0.11500
C3497       C  0.89962694  0.99211221  0.68112777    -0.10700
C3498       C  0.90471910  0.01047131  0.67243379    -0.01700
C3499       C  0.89819227  0.02785920  0.67511831    -0.11800
C3500       C  0.88695390  0.02699914  0.68668284    -0.10200
H3501       H  0.88478059  0.97694865  0.70044155     0.07700
H3502       H  0.90443882  0.97846021  0.67975972     0.11400
H3503       H  0.90179458  0.04227396  0.66854049     0.11100
H3504       H  0.88220866  0.04072278  0.68775326     0.07700
C3505       C  0.01272181  0.98669334  0.98988767    -0.11400
C3506       C  0.00450446  0.00171272  0.98884110     0.05700
C3507       C  0.00684746  0.01927916  0.96860528    -0.10200
C3508       C  0.01735689  0.02213443  0.95143172    -0.11900
C3509       C  0.02572753  0.00742090  0.95387728    -0.01600
C3510       C  0.02317592  0.98946744  0.97246290    -0.10800
C3511       C  0.99365196  0.99917181  0.00946316     0.05700
H3512       H  0.00061030  0.03095595  0.96649534     0.07600
H3513       H  0.01904699  0.03612247  0.93726723     0.11100
H3514       H  0.02946861  0.97792011  0.97532319     0.11400
H3515       H  0.01126116  0.97306956  0.00552015     0.07700
C3516       C  0.98826089  0.98053863  0.01048917    -0.11500
C3517       C  0.97798005  0.97816212  0.02923974    -0.10700
C3518       C  0.97278315  0.99437392  0.04738754    -0.01700
C3519       C  0.97831023  0.01291625  0.04724285    -0.11800
C3520       C  0.98862630  0.01528057  0.02851184    -0.10200
H3521       H  0.99182118  0.96786396  0.99583023     0.07700
H3522       H  0.97393328  0.96370477  0.02845402     0.11400
H3523       H  0.97451499  0.02576625  0.06064425     0.11100
H3524       H  0.99265669  0.02975303  0.02889529     0.07700
C3525       C  0.94138064  0.02270256  0.82727052    -0.11400
C3526       C  0.94027640  0.00408125  0.84499141     0.05700
C3527       C  0.94034560  0.98684078  0.82216204    -0.10200
C3528       C  0.94105107  0.98829646  0.78258740    -0.11900
C3529       C  0.94181618  0.00701617  0.76503559    -0.01600
C3530       C  0.94222969  0.02413228  0.78797597    -0.10800
C3531       C  0.93885949  0.00284137  0.88695230     0.05700
H3532       H  0.93977521  0.97219701  0.83477511     0.07600
H3533       H  0.94068672  0.97481700  0.76575821     0.11100
H3534       H  0.94280774  0.03882822  0.77553215     0.11400
H3535       H  0.94118399  0.03635414  0.84354969     0.07700
C3536       C  0.94404185  0.01691643  0.91094182    -0.11500
C3537       C  0.94275724  0.01579863  0.95022960    -0.10700
C3538       C  0.93648455  0.00031223  0.96664840    -0.01700
C3539       C  0.93115274  0.98639326  0.94287537    -0.11800
C3540       C  0.93222789  0.98776126  0.90346324    -0.10200
H3541       H  0.94940446  0.02850990  0.89956807     0.07700
H3542       H  0.94716898  0.02649714  0.96784431     0.11400
H3543       H  0.92628456  0.97425955  0.95479199     0.11100
H3544       H  0.92787101  0.97694783  0.88601154     0.07700
C3545       C  0.93289389  0.98440128  0.40405941    -0.11400
C3546       C  0.93821960  0.00074564  0.38676282     0.05700
C3547       C  0.94256020  0.01602403  0.40991930    -0.10200
C3548       C  0.94161928  0.01499896  0.44931690    -0.11900
C3549       C  0.93648302  0.99851316  0.46660012    -0.01600
C3550       C  0.93209654  0.98324031  0.44356482    -0.10800
C3551       C  0.93904492  0.00221674  0.34477923     0.05700
H3552       H  0.94692913  0.02863254  0.39765942     0.07600
H3553       H  0.94533622  0.02674789  0.46629578     0.11100
H3554       H  0.92815790  0.97026403  0.45611474     0.11400
H3555       H  0.92929508  0.97254462  0.38709794     0.07700
C3556       C  0.94087986  0.98529838  0.32196337    -0.11500
C3557       C  0.94137849  0.98698909  0.28234947    -0.10700
C3558       C  0.94008872  0.00564109  0.26489489    -0.01700
C3559       C  0.93846270  0.02250908  0.28790684    -0.11800
C3560       C  0.93787880  0.02080111  0.32715598    -0.10200
H3561       H  0.94195577  0.97077463  0.33469860     0.07700
H3562       H  0.94259620  0.97370209  0.26544669     0.11400
H3563       H  0.93737363  0.03713920  0.27560844     0.11100
H3564       H  0.93622989  0.03408121  0.34363216     0.07700
C3565       C  0.88568728  0.02450208  0.16758184    -0.11400
C3566       C  0.88103406  0.00795838  0.18638707     0.05700
C3567       C  0.88798687  0.99136776  0.19313772    -0.10200
C3568       C  0.89940396  0.99170551  0.18267128    -0.11900
C3569       C  0.90410557  0.00869423  0.16552434    -0.01600
C3570       C  0.89705368  0.02491680  0.15755761    -0.10800
C3571       C  0.86903765  0.00841694  0.19918555     0.05700
H3572       H  0.88472005  0.97839895  0.20767834     0.07600
H3573       H  0.90464843  0.97903326  0.18946328     0.11100
H3574       H  0.90037312  0.03816413  0.14404535     0.11400
H3575       H  0.88055288  0.03729799  0.16074949     0.07700
C3576       C  0.86424238  0.02635371  0.21191068    -0.11500
C3577       C  0.85280936  0.02745347  0.22096369    -0.10700
C3578       C  0.84583325  0.01058610  0.21808329    -0.01700
C3579       C  0.85069917  0.99237795  0.20720819    -0.11800
C3580       C  0.86217039  0.99131544  0.19776066    -0.10200
H3581       H  0.86931077  0.03970081  0.21456755     0.07700
H3582       H  0.84939536  0.04167785  0.22965046     0.11400
H3583       H  0.84555774  0.97910906  0.20458707     0.11100
H3584       H  0.86554325  0.97726651  0.18798882     0.07700
C3585       C  0.81505585  0.90569221  0.67762514    -0.11400
C3586       C  0.80987012  0.89029885  0.69821952     0.05700
C3587       C  0.80458888  0.89469819  0.73277115    -0.10200
C3588       C  0.80446443  0.91415088  0.74656663    -0.11900
C3589       C  0.80973291  0.92960002  0.72628778    -0.01600
C3590       C  0.81506273  0.92517666  0.69167743    -0.10800
C3591       C  0.80983035  0.86967144  0.68370412     0.05700
H3592       H  0.80043976  0.88308510  0.74890202     0.07600
H3593       H  0.80030034  0.91704602  0.77333710     0.11100
H3594       H  0.81920450  0.93675468  0.67544775     0.11400
H3595       H  0.81921822  0.90257418  0.65093545     0.07700
C3596       C  0.80629541  0.86565782  0.64652352    -0.11500
C3597       C  0.80586533  0.84609295  0.63323491    -0.10700
C3598       C  0.80915129  0.83020672  0.65668177    -0.01700
C3599       C  0.81281550  0.83426503  0.69377184    -0.11800
C3600       C  0.81305280  0.85382831  0.70727466    -0.10200
H3601       H  0.80368632  0.87764181  0.62799146     0.07700
H3602       H  0.80306578  0.84341804  0.60443061     0.11400
H3603       H  0.81539299  0.82231582  0.71242870     0.11100
H3604       H  0.81584474  0.85663305  0.73604472     0.07700
C3605       C  0.80821368  0.77095917  0.82377392    -0.11400
C3606       C  0.81096384  0.75417961  0.84583708     0.05700
C3607       C  0.81281020  0.73595530  0.82750451    -0.10200
C3608       C  0.81220433  0.73457695  0.78815675    -0.11900
C3609       C  0.80981616  0.75142351  0.76585540    -0.01600
C3610       C  0.80767214  0.76961131  0.78413622    -0.10800
C3611       C  0.81227582  0.75565796  0.88766888     0.05700
H3612       H  0.81509511  0.72281228  0.84346247     0.07600
H3613       H  0.81392587  0.72028620  0.77520793     0.11100
H3614       H  0.80578109  0.78284492  0.76784992     0.11400
H3615       H  0.80654563  0.78516278  0.83713339     0.07700
C3616       C  0.81729895  0.77253815  0.90408046    -0.11500
C3617       C  0.81849856  0.77401096  0.94337408    -0.10700
C3618       C  0.81475471  0.75859109  0.96723624    -0.01700
C3619       C  0.81003603  0.74143056  0.95080061    -0.11800
C3620       C  0.80876692  0.74001829  0.91147600    -0.10200
H3621       H  0.82032739  0.78464028  0.88654110     0.07700
H3622       H  0.82215593  0.78745508  0.95510535     0.11400
H3623       H  0.80689312  0.72942418  0.96837748     0.11100
H3624       H  0.80475530  0.72688152  0.89981181     0.07700
C3625       C  0.81225036  0.73823711  0.32777287    -0.11400
C3626       C  0.81166256  0.75688618  0.34555372     0.05700
C3627       C  0.81083854  0.77406295  0.32284100    -0.10200
C3628       C  0.81071517  0.77255504  0.28316031    -0.11900
C3629       C  0.81146763  0.75384312  0.26551804    -0.01600
C3630       C  0.81214969  0.73673460  0.28837716    -0.10800
C3631       C  0.81208270  0.75821062  0.38761630     0.05700
H3632       H  0.81024976  0.78865015  0.33574632     0.07600
H3633       H  0.81023055  0.78600944  0.26635359     0.11100
H3634       H  0.81273640  0.72205698  0.27582973     0.11400
H3635       H  0.81305878  0.72474738  0.34431647     0.07700
C3636       C  0.80648112  0.74400755  0.41013085    -0.11500
C3637       C  0.80701847  0.74497803  0.44967375    -0.10700
C3638       C  0.81306185  0.76030660  0.46761969    -0.01700
C3639       C  0.81871738  0.77444947  0.44518917    -0.11800
C3640       C  0.81827955  0.77335608  0.40561495    -0.10200
H3641       H  0.80148102  0.73233829  0.39717882     0.07700
H3642       H  0.80235697  0.73414843  0.46619753     0.11400
H3643       H  0.82340532  0.78648482  0.45826797     0.11100
H3644       H  0.82284271  0.78431016  0.38910802     0.07700
C3645       C  0.81323804  0.85432536  0.20602841    -0.11400
C3646       C  0.81064999  0.87023277  0.18172514     0.05700
C3647       C  0.80816204  0.86630576  0.14355356    -0.10200
C3648       C  0.80805899  0.84676737  0.13003390    -0.11900
C3649       C  0.81064696  0.83081532  0.15427642    -0.01600
C3650       C  0.81335178  0.83478574  0.19233102    -0.10800
C3651       C  0.81028963  0.89084950  0.19633559     0.05700
H3652       H  0.80608357  0.87833800  0.12438218     0.07600
H3653       H  0.80602929  0.84415015  0.10048872     0.11100
H3654       H  0.81538818  0.82277542  0.21160185     0.11400
H3655       H  0.81524276  0.85705807  0.23555577     0.07700
C3656       C  0.80406050  0.89526408  0.22906383    -0.11500
C3657       C  0.80360908  0.91471921  0.24288862    -0.10700
C3658       C  0.80948604  0.93014313  0.22448588    -0.01700
C3659       C  0.81570851  0.92570179  0.19161339    -0.11800
C3660       C  0.81604601  0.90623788  0.17753598    -0.10200
H3661       H  0.79945104  0.88365963  0.24374244     0.07700
H3662       H  0.79873128  0.91762760  0.26824838     0.11400
H3663       H  0.82034161  0.93723898  0.17684258     0.11100
H3664       H  0.82093438  0.90312454  0.15227952     0.07700
C3665       C  0.99078261  0.74313978  0.84186606    -0.11400
C3666       C  0.99541684  0.75892802  0.86319527     0.05700
C3667       C  0.98969278  0.77721966  0.86349460    -0.10200
C3668       C  0.97946073  0.77944126  0.84431830    -0.11900
C3669       C  0.97454521  0.76337991  0.82457195    -0.01600
C3670       C  0.98046058  0.74530552  0.82294628    -0.10800
C3671       C  0.00609738  0.75630134  0.88520568     0.05700
H3672       H  0.99287796  0.78969181  0.87975164     0.07600
H3673       H  0.97515690  0.79358760  0.84646795     0.11100
H3674       H  0.97694777  0.73261323  0.80809234     0.11400
H3675       H  0.99507363  0.72897959  0.84004468     0.07700
C3676       C  0.00873495  0.73789550  0.90202835    -0.11500
C3677       C  0.01909105  0.73500002  0.92023931    -0.10700
C3678       C  0.02706018  0.75049299  0.92249096    -0.01700
C3679       C  0.02415673  0.76923042  0.90770623    -0.11800
C3680       C  0.01385266  0.77206784  0.88916119    -0.10200
H3681       H  0.00286234  0.72556409  0.90066241     0.07700
H3682       H  0.02100661  0.72038592  0.93139912     0.11400
H3683       H  0.03010201  0.78147863  0.90858818     0.11100
H3684       H  0.01221331  0.78642863  0.87647341     0.07700
C3685       C  0.93386592  0.85314320  0.67572970    -0.11400
C3686       C  0.93932455  0.86839375  0.69604529     0.05700
C3687       C  0.94529473  0.86355878  0.72909188    -0.10200
C3688       C  0.94589276  0.84385962  0.74143994    -0.11900
C3689       C  0.94045236  0.82854666  0.72118833    -0.01600
C3690       C  0.93437020  0.83341060  0.68829218    -0.10800
C3691       C  0.93913705  0.88920316  0.68219858     0.05700
H3692       H  0.94968464  0.87498835  0.74500940     0.07600
H3693       H  0.95061220  0.84064830  0.76699409     0.11100
H3694       H  0.93004342  0.82197777  0.67219804     0.11400
H3695       H  0.92914511  0.85652765  0.65025764     0.07700
C3696       C  0.94133121  0.89328980  0.64388509    -0.11500
C3697       C  0.94167117  0.91288942  0.63090634    -0.10700
C3698       C  0.93963477  0.92881682  0.65581258    -0.01700
C3699       C  0.93723907  0.92478068  0.69404342    -0.11800
C3700       C  0.93710980  0.90512563  0.70721902    -0.10200
H3701       H  0.94303210  0.88132158  0.62411276     0.07700
H3702       H  0.94347325  0.91559325  0.60122790     0.11400
H3703       H  0.93566995  0.93681180  0.71380606     0.11100
H3704       H  0.93535732  0.90233700  0.73689475     0.07700
C3705       C  0.88561375  0.73356122  0.70910463    -0.11400
C3706       C  0.88099874  0.75145321  0.69555781     0.05700
C3707       C  0.88802737  0.76831481  0.69328409    -0.10200
C3708       C  0.89951088  0.76700329  0.70265923    -0.11900
C3709       C  0.90419700  0.74880119  0.71450603    -0.01600
C3710       C  0.89703049  0.73223340  0.71830237    -0.10800
C3711       C  0.86899432  0.75202332  0.68291481     0.05700
H3712       H  0.88475318  0.78231589  0.68292393     0.07600
H3713       H  0.90479582  0.78004264  0.69925554     0.11100
H3714       H  0.90029107  0.71802463  0.72766795     0.11400
H3715       H  0.88039881  0.72041739  0.71223762     0.07700
C3716       C  0.86437307  0.73567348  0.66339391    -0.11500
C3717       C  0.85293645  0.73506230  0.65425330    -0.10700
C3718       C  0.84576913  0.75087347  0.66397732    -0.01700
C3719       C  0.85045162  0.76776357  0.68166971    -0.11800
C3720       C  0.86195911  0.76831952  0.69111304    -0.10200
H3721       H  0.86959104  0.72312273  0.65560013     0.07700
H3722       H  0.84964696  0.72193724  0.64019269     0.11400
H3723       H  0.84513525  0.78014403  0.68971374     0.11100
H3724       H  0.86524242  0.78113975  0.70614317     0.07700
C3725       C  0.00913491  0.73469709  0.39902390    -0.11400
C3726       C  0.00609279  0.75356406  0.38506662     0.05700
C3727       C  0.01365681  0.76949333  0.39017354    -0.10200
C3728       C  0.02409933  0.76653651  0.40755736    -0.11900
C3729       C  0.02735368  0.74751175  0.41995503    -0.01600
C3730       C  0.01965676  0.73168428  0.41609172    -0.10800
C3731       C  0.99517591  0.75663729  0.36485200     0.05700
H3732       H  0.01171111  0.78417487  0.37945215     0.07600
H3733       H  0.02984094  0.77904629  0.40962102     0.11100
H3734       H  0.02187715  0.71683761  0.42532662     0.11400
H3735       H  0.00342854  0.72217483  0.39643997     0.07700
C3736       C  0.99061760  0.74175793  0.34118336    -0.11500
C3737       C  0.98020064  0.74448899  0.32322285    -0.10700
C3738       C  0.97412886  0.76224692  0.32819813    -0.01700
C3739       C  0.97887838  0.77736409  0.35079705    -0.11800
C3740       C  0.98920932  0.77455948  0.36901026    -0.10200
H3741       H  0.99507907  0.72793444  0.33659455     0.07700
H3742       H  0.97679544  0.73251139  0.30610048     0.11400
H3743       H  0.97440238  0.79114878  0.35572812     0.11100
H3744       H  0.99233651  0.78626580  0.38733844     0.07700
C3745       C  0.94159950  0.76933531  0.55325793    -0.11400
C3746       C  0.93812167  0.75296209  0.53114590     0.05700
C3747       C  0.93530039  0.73510522  0.54936452    -0.10200
C3748       C  0.93586173  0.73361664  0.58867651    -0.11900
C3749       C  0.93919200  0.74999643  0.61100132    -0.01600
C3750       C  0.94210523  0.76788485  0.59285904    -0.10800
C3751       C  0.93735648  0.75438633  0.48923738     0.05700
H3752       H  0.93241899  0.72233424  0.53327619     0.07600
H3753       H  0.93346064  0.71961162  0.60156326     0.11100
H3754       H  0.94470547  0.78075339  0.60920596     0.11400
H3755       H  0.94398541  0.78323098  0.53992933     0.07700
C3756       C  0.93327949  0.77174690  0.47196055    -0.11500
C3757       C  0.93288534  0.77328800  0.43250136    -0.10700
C3758       C  0.93651527  0.75746180  0.40942825    -0.01700
C3759       C  0.94020019  0.73981691  0.42669649    -0.11800
C3760       C  0.94066235  0.73832908  0.46617340    -0.10200
H3761       H  0.93043475  0.78419009  0.48895351     0.07700
H3762       H  0.92995929  0.78706898  0.42006300     0.11400
H3763       H  0.94318712  0.72745661  0.40974543     0.11100
H3764       H  0.94394646  0.72480782  0.47860938     0.07700
C3765       C  0.94497694  0.76921915  0.05379996    -0.11400
C3766       C  0.94109788  0.75323960  0.03131796     0.05700
C3767       C  0.93778382  0.73557130  0.04931313    -0.10200
C3768       C  0.93823217  0.73389804  0.08860992    -0.11900
C3769       C  0.94187573  0.74993299  0.11127749    -0.01600
C3770       C  0.94530524  0.76762088  0.09344360    -0.10800
C3771       C  0.94023351  0.75495231  0.98935970     0.05700
H3772       H  0.93453217  0.72312200  0.03312114     0.07600
H3773       H  0.93539063  0.72008383  0.10123886     0.11100
H3774       H  0.94815185  0.78022795  0.11006784     0.11400
H3775       H  0.94775986  0.78296178  0.04077779     0.07700
C3776       C  0.93691607  0.77292599  0.97249395    -0.11500
C3777       C  0.93608876  0.77452329  0.93311510    -0.10700
C3778       C  0.93850730  0.75815412  0.90956242    -0.01700
C3779       C  0.94157727  0.74003604  0.92642147    -0.11800
C3780       C  0.94247622  0.73847930  0.96583317    -0.10200
H3781       H  0.93489114  0.78577376  0.98972060     0.07700
H3782       H  0.93371360  0.78873827  0.92112816     0.11400
H3783       H  0.94363962  0.72721377  0.90915282     0.11100
H3784       H  0.94519650  0.72446054  0.97779123     0.07700
C3785       C  0.94204420  0.86414348  0.23338235    -0.11400
C3786       C  0.94037548  0.86804031  0.19470582     0.05700
C3787       C  0.93898754  0.85199687  0.16948446    -0.10200
C3788       C  0.93923729  0.83237938  0.18278810    -0.11900
C3789       C  0.94115203  0.82850243  0.22138408    -0.01600
C3790       C  0.94254377  0.84456700  0.24652887    -0.10800
C3791       C  0.94036420  0.88879838  0.18067630     0.05700
H3792       H  0.93763297  0.85466944  0.13953739     0.07600
H3793       H  0.93813589  0.82025281  0.16285329     0.11100
H3794       H  0.94393199  0.84198043  0.27648964     0.11400
H3795       H  0.94319816  0.87625764  0.25331165     0.07700
C3796       C  0.93384196  0.90344686  0.19869883    -0.11500
C3797       C  0.93393607  0.92308586  0.18551902    -0.10700
C3798       C  0.94063395  0.92846051  0.15425240    -0.01700
C3799       C  0.94723841  0.91377430  0.13654141    -0.11800
C3800       C  0.94706650  0.89414976  0.14952861    -0.10200
H3801       H  0.92856744  0.89962332  0.22269893     0.07700
H3802       H  0.92871856  0.93401444  0.19965823     0.11400
H3803       H  0.95252034  0.91740404  0.11245716     0.11100
H3804       H  0.95227943  0.88316767  0.13550415     0.07700
C3805       C  0.88716351  0.73333227  0.19921866    -0.11400
C3806       C  0.88232431  0.75200268  0.19205320     0.05700
C3807       C  0.88906511  0.76914134  0.19577257    -0.10200
C3808       C  0.90054552  0.76749187  0.20475167    -0.11900
C3809       C  0.90546072  0.74867292  0.21034141    -0.01600
C3810       C  0.89855519  0.73168051  0.20817200    -0.10800
C3811       C  0.87034744  0.75317969  0.17993446     0.05700
H3812       H  0.88555697  0.78373601  0.19048650     0.07600
H3813       H  0.90562259  0.78088355  0.20626529     0.11100
H3814       H  0.90198790  0.71695462  0.21267590     0.11400
H3815       H  0.88213332  0.71988636  0.19759858     0.07700
C3816       C  0.86602420  0.73901811  0.15436985    -0.11500
C3817       C  0.85455491  0.73846662  0.14583029    -0.10700
C3818       C  0.84714259  0.75225556  0.16216784    -0.01700
C3819       C  0.85151258  0.76720074  0.18597849    -0.11800
C3820       C  0.86302786  0.76761689  0.19491993    -0.10200
H3821       H  0.87149694  0.72803061  0.14155566     0.07700
H3822       H  0.85142592  0.72693000  0.12707393     0.11400
H3823       H  0.84594493  0.77790783  0.19919879     0.11100
H3824       H  0.86610785  0.77866486  0.21477902     0.07700
C3825       C  0.80403369  0.11180014  0.77611943    -0.11400
C3826       C  0.80331026  0.11880886  0.81351493     0.05700
C3827       C  0.80288992  0.10487748  0.84343315    -0.10200
C3828       C  0.80383910  0.08442897  0.83610894    -0.11900
C3829       C  0.80536761  0.07772497  0.79882929    -0.01600
C3830       C  0.80511348  0.09150893  0.76891520    -0.10800
C3831       C  0.80434949  0.14049061  0.82114936     0.05700
H3832       H  0.80220308  0.10985236  0.87256290     0.07600
H3833       H  0.80401900  0.07403385  0.85956343     0.11100
H3834       H  0.80619056  0.08659910  0.73985290     0.11400
H3835       H  0.80447946  0.12206169  0.75249943     0.07700
C3836       C  0.81146578  0.14709799  0.85031663    -0.11500
C3837       C  0.81348415  0.16732940  0.85558792    -0.10700
C3838       C  0.80842633  0.18160367  0.83191668    -0.01700
C3839       C  0.80112532  0.17512686  0.80307363    -0.11800
C3840       C  0.79914550  0.15472219  0.79762045    -0.10200
H3841       H  0.81579414  0.13658192  0.86840862     0.07700
H3842       H  0.81909341  0.17176237  0.87832851     0.11400
H3843       H  0.79704187  0.18577304  0.78461677     0.11100
H3844       H  0.79358453  0.15006032  0.77492416     0.07700
C3845       C  0.80740081  0.14721551  0.35339433    -0.11400
C3846       C  0.80267965  0.14081007  0.31902961     0.05700
C3847       C  0.79947581  0.15519339  0.29201229    -0.10200
C3848       C  0.80125776  0.17554645  0.29898341    -0.11900
C3849       C  0.80646642  0.18174690  0.33275908    -0.01600
C3850       C  0.80931835  0.16737358  0.36007070    -0.10800
C3851       C  0.80239780  0.11917885  0.31023333     0.05700
H3852       H  0.79578834  0.15065441  0.26526230     0.07600
H3853       H  0.79892447  0.18631957  0.27756614     0.11100
H3854       H  0.81321840  0.17170126  0.38662072     0.11400
H3855       H  0.81011625  0.13655667  0.37450619     0.07700
C3856       C  0.80651076  0.11243003  0.27525169    -0.11500
C3857       C  0.80825943  0.09217919  0.26902793    -0.10700
C3858       C  0.80582925  0.07811404  0.29743999    -0.01700
C3859       C  0.80102127  0.08464376  0.33159518    -0.11800
C3860       C  0.79940728  0.10505188  0.33806595    -0.10200
H3861       H  0.80898489  0.12288467  0.25340134     0.07700
H3862       H  0.81179154  0.08754520  0.24210309     0.11400
H3863       H  0.79897168  0.07410441  0.35378703     0.11100
H3864       H  0.79612537  0.10985397  0.36522669     0.07700
C3865       C  0.81085145  0.27321428  0.57072100    -0.11400
C3866       C  0.81270024  0.25618001  0.59319540     0.05700
C3867       C  0.81362287  0.23763823  0.57514605    -0.10200
C3868       C  0.81282132  0.23609221  0.53589709    -0.11900
C3869       C  0.81123678  0.25307568  0.51322963    -0.01600
C3870       C  0.81015457  0.27168575  0.53108390    -0.10800
C3871       C  0.81371808  0.25748733  0.63523744     0.05700
H3872       H  0.81525968  0.22424465  0.59123747     0.07600
H3873       H  0.81372045  0.22147866  0.52330045     0.11100
H3874       H  0.80895383  0.28506079  0.51446671     0.11400
H3875       H  0.80991794  0.28771530  0.58372264     0.07700
C3876       C  0.81893938  0.27393346  0.65265293    -0.11500
C3877       C  0.81964978  0.27518567  0.69219853    -0.10700
C3878       C  0.81528059  0.25990620  0.71520027    -0.01700
C3879       C  0.81042236  0.24317044  0.69779400    -0.11800
C3880       C  0.80955344  0.24206199  0.65837462    -0.10200
H3881       H  0.82245600  0.28587837  0.63576953     0.07700
H3882       H  0.82343107  0.28830497  0.70479626     0.11400
H3883       H  0.80678247  0.23132644  0.71467926     0.11100
H3884       H  0.80528928  0.22932752  0.64614355     0.07700
C3885       C  0.80750887  0.24019738  0.15875256    -0.11400
C3886       C  0.81095114  0.25585841  0.13489772     0.05700
C3887       C  0.81583964  0.27287285  0.15127244    -0.10200
C3888       C  0.81698441  0.27442512  0.19059640    -0.11900
C3889       C  0.81332691  0.25894563  0.21449322    -0.01600
C3890       C  0.80872899  0.24168442  0.19807511    -0.10800
C3891       C  0.80971213  0.25422316  0.09306711     0.05700
H3892       H  0.81881018  0.28500094  0.13368388     0.07600
H3893       H  0.82055835  0.28794057  0.20231961     0.11100
H3894       H  0.80566010  0.22962512  0.21566536     0.11400
H3895       H  0.80359748  0.22696081  0.14711263     0.07700
C3896       C  0.81173966  0.23598440  0.07502205    -0.11500
C3897       C  0.81117179  0.23442742  0.03571074    -0.10700
C3898       C  0.80867293  0.25112266  0.01312992    -0.01700
C3899       C  0.80634037  0.26931737  0.03111179    -0.11800
C3900       C  0.80682420  0.27083413  0.07074423    -0.10200
H3901       H  0.81414722  0.22297880  0.09118417     0.07700
H3902       H  0.81308229  0.22014991  0.02301389     0.11400
H3903       H  0.80437702  0.28243858  0.01459633     0.11100
H3904       H  0.80502268  0.28503918  0.08389664     0.07700
C3905       C  0.98819520  0.27900670  0.62526174    -0.11400
C3906       C  0.99414394  0.26097094  0.62309768     0.05700
C3907       C  0.98966571  0.24552947  0.60059445    -0.10200
C3908       C  0.97927622  0.24769689  0.58230550    -0.11900
C3909       C  0.97312089  0.26544440  0.58572292    -0.01600
C3910       C  0.97784492  0.28123292  0.60673296    -0.10800
C3911       C  0.00491568  0.25811877  0.64429605     0.05700
H3912       H  0.99414826  0.23162559  0.59731853     0.07600
H3913       H  0.97592615  0.23523459  0.56635693     0.11100
H3914       H  0.97332775  0.29509401  0.61023869     0.11400
H3915       H  0.99131743  0.29119884  0.64241333     0.07700
C3916       C  0.01270141  0.27380423  0.64844863    -0.11500
C3917       C  0.02319948  0.27054898  0.66544836    -0.10700
C3918       C  0.02621107  0.25149158  0.67846855    -0.01700
C3919       C  0.01817680  0.23612718  0.67636046    -0.11800
C3920       C  0.00765763  0.23942341  0.65966518    -0.10200
H3921       H  0.01092692  0.28839374  0.63695636     0.07700
H3922       H  0.02918338  0.28273646  0.66645858     0.11400
H3923       H  0.02016268  0.22130664  0.68632874     0.11100
H3924       H  0.00174554  0.22715340  0.65814467     0.07700
C3925       C  0.94537335  0.14679214  0.53006288    -0.11400
C3926       C  0.94777358  0.13993288  0.56670465     0.05700
C3927       C  0.94926773  0.15393812  0.59611840    -0.10200
C3928       C  0.94784279  0.17435325  0.58925368    -0.11900
C3929       C  0.94466747  0.18094416  0.55307501    -0.01600
C3930       C  0.94374741  0.16703049  0.52341804    -0.10800
C3931       C  0.94713956  0.11827601  0.57477102     0.05700
H3932       H  0.95117270  0.14901358  0.62464299     0.07600
H3933       H  0.94864061  0.18481249  0.61249807     0.11100
H3934       H  0.94144258  0.17178809  0.49510879     0.11400
H3935       H  0.94406768  0.13640065  0.50696195     0.07700
C3936       C  0.94051603  0.11161753  0.60513278    -0.11500
C3937       C  0.93845647  0.09138115  0.61023307    -0.10700
C3938       C  0.94304010  0.07716528  0.58530623    -0.01700
C3939       C  0.95002458  0.08369136  0.55561725    -0.11800
C3940       C  0.95198144  0.10411647  0.55020337    -0.10200
H3941       H  0.93651773  0.12213664  0.62411227     0.07700
H3942       H  0.93313713  0.08689992  0.63370202     0.11400
H3943       H  0.95376422  0.07308797  0.53622521     0.11100
H3944       H  0.95713632  0.10888778  0.52653310     0.07700
C3945       C  0.88828312  0.26713020  0.44772762    -0.11400
C3946       C  0.88132922  0.25015928  0.44848307     0.05700
C3947       C  0.88583884  0.23218889  0.46206916    -0.10200
C3948       C  0.89714992  0.23092999  0.47269504    -0.11900
C3949       C  0.90425559  0.24765232  0.47028798    -0.01600
C3950       C  0.89962260  0.26589627  0.45855444    -0.10800
C3951       C  0.86951963  0.25084279  0.43423773     0.05700
H3952       H  0.88064156  0.21896181  0.46406696     0.07600
H3953       H  0.90038718  0.21668984  0.48197977     0.11100
H3954       H  0.90486146  0.27906193  0.45629389     0.11400
H3955       H  0.88508604  0.28118815  0.43737712     0.07700
C3956       C  0.86249915  0.26724271  0.44165076    -0.11500
C3957       C  0.85116113  0.26698004  0.43044489    -0.10700
C3958       C  0.84662352  0.25026029  0.41184919    -0.01700
C3959       C  0.85378957  0.23434492  0.40281014    -0.11800
C3960       C  0.86509249  0.23467601  0.41368482    -0.10200
H3961       H  0.86563615  0.27991740  0.45745961     0.07700
H3962       H  0.84582123  0.27940973  0.43803144     0.11400
H3963       H  0.85057945  0.22134519  0.38813121     0.11100
H3964       H  0.87034044  0.22207165  0.40646149     0.07700
C3965       C  0.98990927  0.27706735  0.11338935    -0.11400
C3966       C  0.99517383  0.25835235  0.11440912     0.05700
C3967       C  0.98978589  0.24217744  0.09651142    -0.10200
C3968       C  0.97916228  0.24443618  0.07983098    -0.11900
C3969       C  0.97369018  0.26296940  0.08039827    -0.01600
C3970       C  0.97933796  0.27935480  0.09651278    -0.10800
C3971       C  0.00607954  0.25563188  0.13481068     0.05700
H3972       H  0.99370568  0.22765510  0.09580416     0.07600
H3973       H  0.97507669  0.23148458  0.06768517     0.11100
H3974       H  0.97538719  0.29385269  0.09757156     0.11400
H3975       H  0.99372085  0.28985091  0.12703931     0.07700
C3976       C  0.01428797  0.27077963  0.13498990    -0.11500
C3977       C  0.02462185  0.26798367  0.15323454    -0.10700
C3978       C  0.02709010  0.24986251  0.17130391    -0.01700
C3979       C  0.01879656  0.23492125  0.17209902    -0.11800
C3980       C  0.00838628  0.23783271  0.15435067    -0.10200
H3981       H  0.01291001  0.28458144  0.11990546     0.07700
H3982       H  0.03090476  0.27967027  0.15146129     0.11400
H3983       H  0.02044845  0.22079110  0.18573749     0.11100
H3984       H  0.00217389  0.22603361  0.15573350     0.07700
C3985       C  0.95050180  0.15357438  0.08957696    -0.11400
C3986       C  0.94761741  0.13931990  0.06188346     0.05700
C3987       C  0.94341459  0.14574491  0.02686333    -0.10200
C3988       C  0.94150918  0.16590383  0.02038998    -0.11900
C3989       C  0.94391094  0.18012347  0.04857864    -0.01600
C3990       C  0.94876708  0.17388464  0.08282043    -0.10800
C3991       C  0.94739740  0.11784610  0.07106553     0.05700
H3992       H  0.94100247  0.13508707  0.00524597     0.07600
H3993       H  0.93791599  0.17034876  0.99345742     0.11100
H3994       H  0.95076111  0.18457272  0.10484942     0.11400
H3995       H  0.95377376  0.14892260  0.11683412     0.07700
C3996       C  0.95129043  0.10343691  0.04518250    -0.11500
C3997       C  0.94955586  0.08310931  0.05222793    -0.10700
C3998       C  0.94369354  0.07702524  0.08483994    -0.01700
C3999       C  0.94012741  0.09148815  0.11104369    -0.11800
C4000       C  0.94200366  0.11161395  0.10433451    -0.10200
H4001       H  0.95546646  0.10794544  0.01924838     0.07700
H4002       H  0.95246003  0.07225571  0.03173600     0.11400
H4003       H  0.93570937  0.08726966  0.13670809     0.11100
H4004       H  0.93876133  0.12238119  0.12442363     0.07700
C4005       C  0.93554350  0.23743895  0.80758353    -0.11400
C4006       C  0.93726381  0.25595367  0.79023190     0.05700
C4007       C  0.93940988  0.27270197  0.81317411    -0.10200
C4008       C  0.93989879  0.27084586  0.85276466    -0.11900
C4009       C  0.93822458  0.25220960  0.87001073    -0.01600
C4010       C  0.93603774  0.23557621  0.84683237    -0.10800
C4011       C  0.93689638  0.25746011  0.74828269     0.05700
H4012       H  0.94084065  0.28715777  0.80048462     0.07600
H4013       H  0.94151593  0.28396601  0.86979865     0.11100
H4014       H  0.93458247  0.22099767  0.85897225     0.11400
H4015       H  0.93366338  0.22434666  0.79077145     0.07700
C4016       C  0.94185233  0.24257053  0.72578673    -0.11500
C4017       C  0.94143705  0.24365115  0.68629441    -0.10700
C4018       C  0.93615525  0.25976117  0.66835333    -0.01700
C4019       C  0.93111966  0.27460787  0.69079870    -0.11800
C4020       C  0.93145989  0.27343843  0.73039139    -0.10200
H4021       H  0.94626230  0.23023851  0.73875838     0.07700
H4022       H  0.94560600  0.23221760  0.66982255     0.11400
H4023       H  0.92701908  0.28724630  0.67773954     0.11100
H4024       H  0.92743366  0.28496979  0.74700156     0.07700
C4025       C  0.93476738  0.27145333  0.23178350    -0.11400
C4026       C  0.93870537  0.25385833  0.24856854     0.05700
C4027       C  0.94158037  0.23772094  0.22499647    -0.10200
C4028       C  0.94076583  0.23931528  0.18554899    -0.11900
C4029       C  0.93715513  0.25714558  0.16879653    -0.01600
C4030       C  0.93402352  0.27309333  0.19241365    -0.10800
C4031       C  0.93959595  0.25224083  0.29050305     0.05700
H4032       H  0.94475276  0.22400475  0.23696615     0.07600
H4033       H  0.94337139  0.22684578  0.16817874     0.11100
H4034       H  0.93117081  0.28704005  0.18046244     0.11400
H4035       H  0.93222750  0.28398615  0.24907919     0.07700
C4036       C  0.94301598  0.26858403  0.31282963    -0.11500
C4037       C  0.94329790  0.26715905  0.35246101    -0.10700
C4038       C  0.94024901  0.24930867  0.37049573    -0.01700
C4039       C  0.93710398  0.23288561  0.34800180    -0.11800
C4040       C  0.93673865  0.23435975  0.30862841    -0.10200
H4041       H  0.94545878  0.28249395  0.29967801     0.07700
H4042       H  0.94578594  0.28005627  0.36892467     0.11400
H4043       H  0.93462542  0.21890216  0.36080839     0.11100
H4044       H  0.93389435  0.22159463  0.29246124     0.07700
C4045       C  0.88513901  0.23306136  0.96527258    -0.11400
C4046       C  0.88037107  0.25132551  0.95454489     0.05700
C4047       C  0.88711507  0.26855508  0.95579633    -0.10200
C4048       C  0.89855258  0.26729619  0.96549743    -0.11900
C4049       C  0.90343703  0.24878242  0.97415654    -0.01600
C4050       C  0.89650640  0.23179270  0.97485416    -0.10800
C4051       C  0.86854157  0.25194883  0.94070329     0.05700
H4052       H  0.88367849  0.28284699  0.94772389     0.07600
H4053       H  0.90365631  0.28067260  0.96469394     0.11100
H4054       H  0.89992807  0.21731950  0.98178049     0.11400
H4055       H  0.88010169  0.21960059  0.96566026     0.07700
C4056       C  0.86444929  0.23653206  0.91746230    -0.11500
C4057       C  0.85316207  0.23594542  0.90662680    -0.10700
C4058       C  0.84569943  0.25092281  0.91822174    -0.01700
C4059       C  0.84984698  0.26692049  0.93986904    -0.11800
C4060       C  0.86118141  0.26739862  0.95114216    -0.10200
H4061       H  0.86996245  0.22470558  0.90801788     0.07700
H4062       H  0.85021009  0.22353593  0.88965039     0.11400
H4063       H  0.84422357  0.27854399  0.94951239     0.11100
H4064       H  0.86407690  0.27943591  0.96913451     0.07700
C4065       C  0.80602199  0.61355244  0.52250733    -0.11400
C4066       C  0.80253508  0.61964197  0.55863102     0.05700
C4067       C  0.79997915  0.60507210  0.58608982    -0.10200
C4068       C  0.80128377  0.58476069  0.57781443    -0.11900
C4069       C  0.80541577  0.57884386  0.54226403    -0.01600
C4070       C  0.80750850  0.59342871  0.51451195    -0.10800
C4071       C  0.80292459  0.64108455  0.56848482     0.05700
H4072       H  0.79725604  0.60945303  0.61419741     0.07600
H4073       H  0.79957197  0.57381519  0.59961095     0.11100
H4074       H  0.81057455  0.58928229  0.48666275     0.11400
H4075       H  0.80817072  0.62442368  0.50100033     0.07700
C4076       C  0.80890162  0.64719417  0.60072297    -0.11500
C4077       C  0.81069895  0.66735370  0.60783371    -0.10700
C4078       C  0.80646050  0.68198142  0.58311852    -0.01700
C4079       C  0.80011404  0.67595955  0.55148971    -0.11800
C4080       C  0.79846162  0.65563601  0.54401284    -0.10200
H4081       H  0.81258885  0.63632939  0.61967732     0.07700
H4082       H  0.81553488  0.67147485  0.63270079     0.11400
H4083       H  0.79670221  0.68688821  0.53210587     0.11100
H4084       H  0.79384021  0.65124748  0.51885736     0.07700
C4085       C  0.81445207  0.40602250  0.42245809    -0.11400
C4086       C  0.81066199  0.39045222  0.44583684     0.05700
C4087       C  0.80663558  0.39486511  0.48226223    -0.10200
C4088       C  0.80621825  0.41455355  0.49487177    -0.11900
C4089       C  0.80998580  0.43018399  0.47150889    -0.01600
C4090       C  0.81420697  0.42571138  0.43529172    -0.10800
C4091       C  0.81056197  0.36973096  0.43172290     0.05700
H4092       H  0.80359632  0.38311169  0.50064941     0.07600
H4093       H  0.80299246  0.41752726  0.52304803     0.11100
H4094       H  0.81718815  0.43743520  0.41673800     0.11400
H4095       H  0.81765084  0.40291403  0.39429764     0.07700
C4096       C  0.80581486  0.36541821  0.39624350    -0.11500
C4097       C  0.80563651  0.34593943  0.38259491    -0.10700
C4098       C  0.81032493  0.33035082  0.40395107    -0.01700
C4099       C  0.81506467  0.33465426  0.43958672    -0.11800
C4100       C  0.81509855  0.35418102  0.45349276    -0.10200
H4101       H  0.80214321  0.37713509  0.37919764     0.07700
H4102       H  0.80191927  0.34313873  0.35503953     0.11400
H4103       H  0.81871704  0.32295265  0.45670404     0.11100
H4104       H  0.81881892  0.35720890  0.48096072     0.07700
C4105       C  0.79972878  0.60582249  0.08068526    -0.11400
C4106       C  0.80414360  0.62012287  0.05555556     0.05700
C4107       C  0.80975278  0.61379411  0.02279941    -0.10200
C4108       C  0.81144181  0.59358171  0.01618438    -0.11900
C4109       C  0.80744530  0.57920396  0.04196124    -0.01600
C4110       C  0.80126396  0.58546592  0.07373113    -0.10800
C4111       C  0.80437351  0.64144191  0.06580091     0.05700
H4112       H  0.81334092  0.62452706  0.00328779     0.07600
H4113       H  0.81608164  0.58923327  0.99106150     0.11100
H4114       H  0.79797250  0.57471324  0.09376393     0.11400
H4115       H  0.79536878  0.61045418  0.10618746     0.07700
C4116       C  0.80122651  0.65627602  0.03972555    -0.11500
C4117       C  0.80280575  0.67646368  0.04852002    -0.10700
C4118       C  0.80782565  0.68196737  0.08306738    -0.01700
C4119       C  0.81077270  0.66704694  0.10916945    -0.11800
C4120       C  0.80899354  0.64705352  0.10074625    -0.10200
H4121       H  0.79771444  0.65220379  0.01243642     0.07700
H4122       H  0.80044410  0.68767359  0.02797014     0.11400
H4123       H  0.81456970  0.67082287  0.13618623     0.11100
H4124       H  0.81166365  0.63589483  0.12098401     0.07700
C4125       C  0.81643102  0.48716368  0.72139582    -0.11400
C4126       C  0.81234354  0.50463835  0.73828512     0.05700
C4127       C  0.80916664  0.52061155  0.71488120    -0.10200
C4128       C  0.80980582  0.51898348  0.67544629    -0.11900
C4129       C  0.81358803  0.50130033  0.65849799    -0.01600
C4130       C  0.81704221  0.48550334  0.68195361    -0.10800
C4131       C  0.81141848  0.50630899  0.78014482     0.05700
H4132       H  0.80586936  0.53420696  0.72703086     0.07600
H4133       H  0.80694878  0.53133188  0.65825974     0.11100
H4134       H  0.82000830  0.47165683  0.66984750     0.11400
H4135       H  0.81914102  0.47475263  0.73868158     0.07700
C4136       C  0.80763410  0.49020576  0.80233482    -0.11500
C4137       C  0.80687143  0.49196374  0.84186176    -0.10700
C4138       C  0.80981825  0.50990169  0.85985567    -0.01700
C4139       C  0.81350355  0.52599000  0.83745668    -0.11800
C4140       C  0.81433034  0.52418751  0.79821501    -0.10200
H4141       H  0.80520305  0.47629287  0.78911282     0.07700
H4142       H  0.80405581  0.47928128  0.85829161     0.11400
H4143       H  0.81602923  0.53995613  0.85028092     0.11100
H4144       H  0.81747035  0.53672984  0.78205852     0.07700
C4145       C  0.80837163  0.48882799  0.30259052    -0.11400
C4146       C  0.81351613  0.50376718  0.28045046     0.05700
C4147       C  0.81825722  0.52030223  0.29889338    -0.10200
C4148       C  0.81771070  0.52206644  0.33825062    -0.11900
C4149       C  0.81249369  0.50725756  0.36043219    -0.01600
C4150       C  0.80791757  0.49050574  0.34218736    -0.10800
C4151       C  0.81382065  0.50232017  0.23831078     0.05700
H4152       H  0.82250753  0.53185906  0.28295005     0.07600
H4153       H  0.82149543  0.53505727  0.35130728     0.11100
H4154       H  0.80387573  0.47882563  0.35842924     0.11400
H4155       H  0.80450374  0.47598952  0.28930232     0.07700
C4156       C  0.81520248  0.48381789  0.22037431    -0.11500
C4157       C  0.81498535  0.48234737  0.18086885    -0.10700
C4158       C  0.81344499  0.49936303  0.15820504    -0.01700
C4159       C  0.81242744  0.51796825  0.17604162    -0.11800
C4160       C  0.81257288  0.51941988  0.21562056    -0.10200
H4161       H  0.81642963  0.47041379  0.23686169     0.07700
H4162       H  0.81584893  0.46776196  0.16812406     0.11400
H4163       H  0.81113754  0.53134291  0.15949975     0.11100
H4164       H  0.81134472  0.53389986  0.22842160     0.07700
C4165       C  0.80607139  0.39543109  0.97835740    -0.11400
C4166       C  0.81019431  0.39108765  0.94202221     0.05700
C4167       C  0.81386191  0.40677328  0.91866502    -0.10200
C4168       C  0.81344551  0.42648609  0.93157586    -0.11900
C4169       C  0.80912150  0.43084289  0.96774888    -0.01600
C4170       C  0.80545341  0.41509567  0.99096447    -0.10800
C4171       C  0.81029358  0.37026106  0.92826783     0.05700
H4172       H  0.81710893  0.40373671  0.89054013     0.07600
H4173       H  0.81635438  0.43831134  0.91312629     0.11100
H4174       H  0.80216177  0.41796132  0.01909525     0.11400
H4175       H  0.80311183  0.38360861  0.99673037     0.07700
C4176       C  0.81493028  0.35499409  0.95053472    -0.11500
C4177       C  0.81468418  0.33523031  0.93790892    -0.10700
C4178       C  0.80963067  0.33035086  0.90304016    -0.01700
C4179       C  0.80497471  0.34569705  0.88091450    -0.11800
C4180       C  0.80536879  0.36543895  0.89328919    -0.10200
H4181       H  0.81880514  0.35840284  0.97759797     0.07700
H4182       H  0.81838415  0.32377899  0.95551504     0.11400
H4183       H  0.80106058  0.34248062  0.85383670     0.11100
H4184       H  0.80163456  0.37692708  0.87583900     0.07700
C4185       C  0.98833585  0.47785948  0.76524795    -0.11400
C4186       C  0.99351078  0.49664192  0.76195251     0.05700
C4187       C  0.98843425  0.51299125  0.78013547    -0.10200
C4188       C  0.97814966  0.51086826  0.79911206    -0.11900
C4189       C  0.97269713  0.49229702  0.80066522    -0.01600
C4190       C  0.97808985  0.47570675  0.78445357    -0.10800
C4191       C  0.00404318  0.49929761  0.73927685     0.05700
H4192       H  0.99232591  0.52756911  0.77928944     0.07600
H4193       H  0.97427069  0.52396935  0.81129720     0.11100
H4194       H  0.97414423  0.46115965  0.78501779     0.11400
H4195       H  0.99193029  0.46491308  0.75160822     0.07700
C4196       C  0.01232020  0.48436388  0.73826716    -0.11500
C4197       C  0.02248136  0.48743357  0.71900852    -0.10700
C4198       C  0.02471797  0.50562293  0.70065759    -0.01700
C4199       C  0.01625280  0.52018982  0.70011510    -0.11800
C4200       C  0.00601535  0.51700203  0.71891968    -0.10200
H4201       H  0.01118973  0.47059975  0.75374087     0.07700
H4202       H  0.02884880  0.47593903  0.72041875     0.11400
H4203       H  0.01767793  0.53433636  0.68620451     0.11100
H4204       H  0.99971257  0.52860393  0.71799442     0.07700
C4205       C  0.94089770  0.61110785  0.84707615    -0.11400
C4206       C  0.94605198  0.61702929  0.81314226     0.05700
C4207       C  0.94956271  0.60226329  0.78727402    -0.10200
C4208       C  0.94790907  0.58197161  0.79538764    -0.11900
C4209       C  0.94251257  0.57620958  0.82912899    -0.01600
C4210       C  0.93911943  0.59104167  0.85487424    -0.10800
C4211       C  0.94681875  0.63860519  0.80411467     0.05700
H4212       H  0.95354018  0.60643178  0.76079259     0.07600
H4213       H  0.95061702  0.57087700  0.77506176     0.11100
H4214       H  0.93500389  0.58714891  0.88128259     0.11400
H4215       H  0.93789229  0.62206362  0.86720587     0.07700
C4216       C  0.94331588  0.64552358  0.76852730    -0.11500
C4217       C  0.94208054  0.66588999  0.76202875    -0.10700
C4218       C  0.94445147  0.67984804  0.79075813    -0.01700
C4219       C  0.94869080  0.67309487  0.82553916    -0.11800
C4220       C  0.94977494  0.65261359  0.83226920    -0.10200
H4221       H  0.94091267  0.63516332  0.74638977     0.07700
H4222       H  0.93895338  0.67073124  0.73468631     0.11400
H4223       H  0.95063801  0.68354352  0.84802703     0.11100
H4224       H  0.95260753  0.64767661  0.85989412     0.07700
C4225       C  0.94250145  0.36456733  0.99006692    -0.11400
C4226       C  0.93832714  0.36847893  0.95361705     0.05700
C4227       C  0.93451465  0.35255800  0.93110192    -0.10200
C4228       C  0.93488792  0.33303834  0.94477385    -0.11900
C4229       C  0.93927127  0.32905587  0.98098094    -0.01600
C4230       C  0.94306077  0.34502986  0.00350006    -0.10800
C4231       C  0.93844515  0.38899471  0.93836348     0.05700
H4232       H  0.93122902  0.35525915  0.90291281     0.07600
H4233       H  0.93189425  0.32105036  0.92682221     0.11100
H4234       H  0.94641760  0.34243911  0.03162955     0.11400
H4235       H  0.94557471  0.37659098  0.00778274     0.07700
C4236       C  0.93386698  0.40492442  0.95908342    -0.11500
C4237       C  0.93410249  0.42428281  0.94428256    -0.10700
C4238       C  0.93909976  0.42805200  0.90880106    -0.01700
C4239       C  0.94374377  0.41204498  0.88841047    -0.11800
C4240       C  0.94335817  0.39274770  0.90292186    -0.10200
H4241       H  0.93000550  0.40233393  0.98648422     0.07700
H4242       H  0.93043751  0.43628023  0.96064622     0.11400
H4243       H  0.94763369  0.41438565  0.86098080     0.11100
H4244       H  0.94704775  0.38073760  0.88663733     0.07700
C4245       C  0.88729458  0.49107091  0.93723011    -0.11400
C4246       C  0.88041554  0.50762009  0.92971548     0.05700
C4247       C  0.88516189  0.52422359  0.91144403    -0.10200
C4248       C  0.89661921  0.52478454  0.90289096    -0.11900
C4249       C  0.90361998  0.50866401  0.91198789    -0.01600
C4250       C  0.89880225  0.49156699  0.92833670    -0.10800
C4251       C  0.86843809  0.50811678  0.94194648     0.05700
H4252       H  0.88003349  0.53697775  0.90423301     0.07600
H4253       H  0.90004705  0.53806307  0.88979935     0.11100
H4254       H  0.90400928  0.47894820  0.93578463     0.11400
H4255       H  0.88388761  0.47807776  0.95134045     0.07700
C4256       C  0.86142004  0.49131328  0.93845184    -0.11500
C4257       C  0.84996488  0.49248513  0.94784664    -0.10700
C4258       C  0.84533459  0.51050414  0.96073031    -0.01700
C4259       C  0.85247419  0.52701345  0.96567648    -0.11800
C4260       C  0.86387491  0.52580587  0.95657903    -0.10200
H4261       H  0.86468589  0.47748743  0.92719331     0.07700
H4262       H  0.84465502  0.47954270  0.94358066     0.11400
H4263       H  0.84920630  0.54105033  0.97598222     0.11100
H4264       H  0.86911306  0.53885267  0.96067482     0.07700
C4265       C  0.98820182  0.47824935  0.26090749    -0.11400
C4266       C  0.99402226  0.49648293  0.26229619     0.05700
C4267       C  0.98946009  0.51206624  0.28407624    -0.10200
C4268       C  0.97907713  0.50981017  0.30241838    -0.11900
C4269       C  0.97300339  0.49187621  0.29955341    -0.01600
C4270       C  0.97783801  0.47596436  0.27933168    -0.10800
C4271       C  0.00467942  0.49940291  0.24056351     0.05700
H4272       H  0.99385316  0.52614958  0.28654722     0.07600
H4273       H  0.97563671  0.52237459  0.31775615     0.11100
H4274       H  0.97338947  0.46196274  0.27628338     0.11400
H4275       H  0.99142568  0.46596096  0.24429292     0.07700
C4276       C  0.01269303  0.48409233  0.23789701    -0.11500
C4277       C  0.02293700  0.48723774  0.21913840    -0.10700
C4278       C  0.02546466  0.50581771  0.20272811    -0.01700
C4279       C  0.01725342  0.52084721  0.20400834    -0.11800
C4280       C  0.00698320  0.51765707  0.22258858    -0.10200
H4281       H  0.01124393  0.46989524  0.25157316     0.07700
H4282       H  0.02909682  0.47537397  0.21912159     0.11400
H4283       H  0.01889923  0.53532353  0.19169333     0.11100
H4284       H  0.00088559  0.52960886  0.22325418     0.07700
C4285       C  0.95048614  0.60289920  0.28996358    -0.11400
C4286       C  0.94725675  0.61737094  0.31677898     0.05700
C4287       C  0.94294177  0.61117128  0.35179670    -0.10200
C4288       C  0.94137010  0.59101519  0.35929397    -0.11900
C4289       C  0.94419479  0.57648747  0.33215724    -0.01600
C4290       C  0.94908722  0.58254874  0.29778026    -0.10800
C4291       C  0.94706343  0.63882444  0.30715926     0.05700
H4292       H  0.94025715  0.62197613  0.37273414     0.07600
H4293       H  0.93770871  0.58680614  0.38627979     0.11100
H4294       H  0.95138968  0.57166498  0.27649156     0.11400
H4295       H  0.95384402  0.60737819  0.26270133     0.07700
C4296       C  0.95097387  0.65330593  0.33293932    -0.11500
C4297       C  0.94934601  0.67362281  0.32570627    -0.10700
C4298       C  0.94357063  0.67970006  0.29296887    -0.01700
C4299       C  0.93992272  0.66516400  0.26690347    -0.11800
C4300       C  0.94171165  0.64499950  0.27379718    -0.10200
H4301       H  0.95510866  0.64885552  0.35895921     0.07700
H4302       H  0.95230807  0.68449529  0.34611851     0.11400
H4303       H  0.93555647  0.66936256  0.24115460     0.11100
H4304       H  0.93846656  0.63416825  0.25377937     0.07700
C4305       C  0.94211005  0.48645105  0.57166674    -0.11400
C4306       C  0.93851546  0.50257971  0.59417191     0.05700
C4307       C  0.93563697  0.52048206  0.57623825    -0.10200
C4308       C  0.93625638  0.52224450  0.53694764    -0.11900
C4309       C  0.93967603  0.50609353  0.51426152    -0.01600
C4310       C  0.94263733  0.48816015  0.53206554    -0.10800
C4311       C  0.93760513  0.50083841  0.63612496     0.05700
H4312       H  0.93262930  0.53307279  0.59249144     0.07600
H4313       H  0.93377281  0.53625018  0.52433107     0.11100
H4314       H  0.94529471  0.47545065  0.51544224     0.11400
H4315       H  0.94454966  0.47252278  0.58466018     0.07700
C4316       C  0.93380469  0.48310606  0.65296168    -0.11500
C4317       C  0.93307232  0.48144844  0.69240269    -0.10700
C4318       C  0.93605698  0.49753126  0.71596036    -0.01700
C4319       C  0.93956875  0.51544082  0.69910607    -0.11800
C4320       C  0.94038894  0.51703919  0.65969667    -0.10200
H4321       H  0.93137097  0.47048949  0.63565672     0.07700
H4322       H  0.93033660  0.46742712  0.70445379     0.11400
H4323       H  0.94209371  0.52802128  0.71638533     0.11100
H4324       H  0.94349328  0.53084110  0.64775649     0.07700
C4325       C  0.94086148  0.51811601  0.15915375    -0.11400
C4326       C  0.93774767  0.50202706  0.13583833     0.05700
C4327       C  0.93366749  0.48453732  0.15270156    -0.10200
C4328       C  0.93294167  0.48299531  0.19211564    -0.11900
C4329       C  0.93630902  0.49890647  0.21555964    -0.01600
C4330       C  0.94014324  0.51658474  0.19860503    -0.10800
C4331       C  0.93852956  0.50367017  0.09402068     0.05700
H4332       H  0.93101365  0.47205676  0.13538096     0.07600
H4333       H  0.92994195  0.46915744  0.20423064     0.11100
H4334       H  0.94295378  0.52900398  0.21580738     0.11400
H4335       H  0.94411150  0.53173868  0.14687753     0.07700
C4336       C  0.93489955  0.52107542  0.07598015    -0.11500
C4337       C  0.93531764  0.52268501  0.03664590    -0.10700
C4338       C  0.93935519  0.50689542  0.01420276    -0.01700
C4339       C  0.94309943  0.48947875  0.03222023    -0.11800
C4340       C  0.94269929  0.48789340  0.07183085    -0.10200
H4341       H  0.93148488  0.53332941  0.09227682     0.07700
H4342       H  0.93222339  0.53624699  0.02381001     0.11400
H4343       H  0.94625565  0.47707345  0.01575614     0.11100
H4344       H  0.94566426  0.47436584  0.08513918     0.07700
C4345       C  0.93440022  0.40432161  0.45530133    -0.11400
C4346       C  0.93763951  0.38829159  0.43202186     0.05700
C4347       C  0.94088700  0.39218057  0.39446174    -0.10200
C4348       C  0.94123502  0.41168995  0.38082776    -0.11900
C4349       C  0.93822527  0.42777146  0.40428307    -0.01600
C4350       C  0.93460827  0.42386285  0.44148311    -0.10800
C4351       C  0.93809368  0.36768912  0.44724963     0.05700
H4352       H  0.94348850  0.38017622  0.37593541     0.07600
H4353       H  0.94393856  0.41419624  0.35187361     0.11100
H4354       H  0.93218083  0.43592896  0.46013697     0.11400
H4355       H  0.93173033  0.40172873  0.48425768     0.07700
C4356       C  0.94277772  0.36410970  0.48316332    -0.11500
C4357       C  0.94351284  0.34475647  0.49735894    -0.10700
C4358       C  0.93948444  0.32849322  0.47614596    -0.01700
C4359       C  0.93477949  0.33203543  0.44018365    -0.11800
C4360       C  0.93415670  0.35143171  0.42578264    -0.10200
H4361       H  0.94603990  0.37628517  0.50009429     0.07700
H4362       H  0.94716258  0.34256387  0.52519489     0.11400
H4363       H  0.93160528  0.31982558  0.42315173     0.11100
H4364       H  0.93047036  0.35375698  0.39804344     0.07700
C4365       C  0.86473018  0.52560635  0.46563331    -0.11400
C4366       C  0.86930735  0.50864110  0.44815305     0.05700
C4367       C  0.86229924  0.49201896  0.44213051    -0.10200
C4368       C  0.85084555  0.49276938  0.45154521    -0.11900
C4369       C  0.84616947  0.51020072  0.46693395    -0.01600
C4370       C  0.85330642  0.52641469  0.47472690    -0.10800
C4371       C  0.88123534  0.50871841  0.43520664     0.05700
H4372       H  0.86554171  0.47873444  0.42865159     0.07600
H4373       H  0.84556004  0.48004461  0.44510722     0.11100
H4374       H  0.85000764  0.53999091  0.48697718     0.11400
H4375       H  0.86995120  0.53844825  0.47178310     0.07700
C4376       C  0.88600841  0.52617311  0.42011340    -0.11500
C4377       C  0.89735557  0.52681583  0.40992910    -0.10700
C4378       C  0.90421315  0.50995480  0.41417850    -0.01700
C4379       C  0.89935243  0.49220387  0.42758257    -0.11800
C4380       C  0.88798268  0.49161025  0.43812474    -0.10200
H4381       H  0.88098452  0.53945424  0.41638116     0.07700
H4382       H  0.90080721  0.54067693  0.39934128     0.11400
H4383       H  0.90443685  0.47899554  0.43139075     0.11100
H4384       H  0.88458936  0.47795138  0.44976740     0.07700
C4385       C  0.50874196  0.23994116  0.90203481    -0.11400
C4386       C  0.50643433  0.25768423  0.88231495     0.05700
C4387       C  0.51444741  0.27315637  0.88392449    -0.10200
C4388       C  0.52463858  0.27066128  0.90341910    -0.11900
C4389       C  0.52715388  0.25255806  0.92154562    -0.01600
C4390       C  0.51897506  0.23737534  0.92119376    -0.10800
C4391       C  0.49574806  0.25995043  0.86018083     0.05700
H4392       H  0.51305515  0.28697310  0.86890527     0.07600
H4393       H  0.53079436  0.28258172  0.90257787     0.11100
H4394       H  0.52061337  0.22324202  0.93483427     0.11400
H4395       H  0.50267393  0.22788789  0.90240290     0.07700
C4396       C  0.49087565  0.24359776  0.84117305    -0.11500
C4397       C  0.48043671  0.24535570  0.82288270    -0.10700
C4398       C  0.47460625  0.26355399  0.82290506    -0.01700
C4399       C  0.47976918  0.28015512  0.84011387    -0.11800
C4400       C  0.49016352  0.27836815  0.85855996    -0.10200
H4401       H  0.49505296  0.22929839  0.84086034     0.07700
H4402       H  0.47675462  0.23224798  0.80991912     0.11400
H4403       H  0.47554485  0.29441369  0.84087477     0.11100
H4404       H  0.49357120  0.29128344  0.87294736     0.07700
C4405       C  0.48939801  0.24053677  0.35036882    -0.11400
C4406       C  0.49504114  0.25719687  0.36579448     0.05700
C4407       C  0.49023804  0.27609603  0.36012864    -0.10200
C4408       C  0.48010939  0.27826200  0.34032490    -0.11900
C4409       C  0.47428692  0.26158883  0.32603165    -0.01600
C4410       C  0.47913137  0.24268857  0.33099491    -0.10800
C4411       C  0.50588902  0.25499776  0.38734127     0.05700
H4412       H  0.49409017  0.28931721  0.37197539     0.07600
H4413       H  0.47662178  0.29306531  0.33756482     0.11100
H4414       H  0.47487092  0.22948467  0.32065560     0.11400
H4415       H  0.49288254  0.22575261  0.35320004     0.07700
C4416       C  0.50828891  0.23760510  0.40816201    -0.11500
C4417       C  0.51875757  0.23510645  0.42602022    -0.10700
C4418       C  0.52704458  0.25007891  0.42418298    -0.01700
C4419       C  0.52443912  0.26786228  0.40517927    -0.11800
C4420       C  0.51408759  0.27021021  0.38675544    -0.10200
H4421       H  0.50214146  0.22574514  0.41037443     0.07700
H4422       H  0.52046635  0.22121617  0.44044461     0.11400
H4423       H  0.53064952  0.27963031  0.40269220     0.11100
H4424       H  0.51276443  0.28371200  0.37070701     0.07700
C4425       C  0.55473588  0.27007800  0.69448551    -0.11400
C4426       C  0.56092378  0.25476826  0.71183913     0.05700
C4427       C  0.56600530  0.24026319  0.68868062    -0.10200
C4428       C  0.56495203  0.24104235  0.64925632    -0.11900
C4429       C  0.55895247  0.25653635  0.63192428    -0.01600
C4430       C  0.55382016  0.27101779  0.65494407    -0.10800
C4431       C  0.56185510  0.25349173  0.75388859     0.05700
H4432       H  0.57102032  0.22848244  0.70097748     0.07600
H4433       H  0.56924661  0.22996592  0.63226516     0.11100
H4434       H  0.54920531  0.28322006  0.64233014     0.11400
H4435       H  0.55055994  0.28129103  0.71144943     0.07700
C4436       C  0.56150148  0.23482903  0.77168011    -0.11500
C4437       C  0.56206519  0.23328614  0.81101167    -0.10700
C4438       C  0.56292647  0.25036677  0.83392214    -0.01700
C4439       C  0.56348656  0.26910889  0.81629163    -0.11800
C4440       C  0.56294486  0.27065650  0.77662389    -0.10200
H4441       H  0.56047122  0.22132554  0.75525602     0.07700
H4442       H  0.56157790  0.21859126  0.82350067     0.11400
H4443       H  0.56406514  0.28256355  0.83312320     0.11100
H4444       H  0.56337175  0.28526626  0.76377663     0.07700
C4445       C  0.56261462  0.23646587  0.18843817    -0.11400
C4446       C  0.56048499  0.25293604  0.21202424     0.05700
C4447       C  0.55716339  0.27096106  0.19545808    -0.10200
C4448       C  0.55623924  0.27263450  0.15613657    -0.11900
C4449       C  0.55863847  0.25631875  0.13242151    -0.01600
C4450       C  0.56168186  0.23812360  0.14905730    -0.10800
C4451       C  0.56142480  0.25115889  0.25382254     0.05700
H4452       H  0.55524499  0.28377815  0.21292295     0.07600
H4453       H  0.55388453  0.28689577  0.14430166     0.11100
H4454       H  0.56373788  0.22535388  0.13163843     0.11400
H4455       H  0.56527662  0.22240456  0.20039168     0.07700
C4456       C  0.55739453  0.23402393  0.27196241    -0.11500
C4457       C  0.55783438  0.23239176  0.31126708    -0.10700
C4458       C  0.56227768  0.24789967  0.33367103    -0.01700
C4459       C  0.56646496  0.26501023  0.31557727    -0.11800
C4460       C  0.56605650  0.26660851  0.27596119    -0.10200
H4461       H  0.55361160  0.22202524  0.25581654     0.07700
H4462       H  0.55443202  0.21902995  0.32409511     0.11400
H4463       H  0.56994008  0.27719909  0.33198064     0.11100
H4464       H  0.56935377  0.27991796  0.26263813     0.07700
C4465       C  0.74165509  0.23586891  0.73116720    -0.11400
C4466       C  0.74546325  0.25505298  0.74080970     0.05700
C4467       C  0.73851614  0.27141263  0.73253431    -0.10200
C4468       C  0.72792938  0.26864019  0.71593456    -0.11900
C4469       C  0.72397067  0.24941391  0.70734862    -0.01600
C4470       C  0.73103399  0.23307740  0.71471115    -0.10800
C4471       C  0.75658939  0.25804908  0.75959312     0.05700
H4472       H  0.74110313  0.28637412  0.73999125     0.07600
H4473       H  0.72267358  0.28155160  0.71118610     0.11100
H4474       H  0.72825600  0.21805257  0.70857305     0.11400
H4475       H  0.74687032  0.22297270  0.73647417     0.07700
C4476       C  0.76054325  0.24459228  0.78712407    -0.11500
C4477       C  0.77110178  0.24733980  0.80417375    -0.10700
C4478       C  0.77788672  0.26372433  0.79436650    -0.01700
C4479       C  0.77383322  0.27733123  0.76734749    -0.11800
C4480       C  0.76336264  0.27448296  0.75008593    -0.10200
H4481       H  0.75546525  0.23194303  0.79557149     0.07700
H4482       H  0.77399666  0.23654309  0.82475111     0.11400
H4483       H  0.77892119  0.28990500  0.75852615     0.11100
H4484       H  0.76069620  0.28494336  0.72856214     0.07700
C4485       C  0.63766107  0.27689555  0.56561990    -0.11400
C4486       C  0.63167683  0.25900648  0.57028943     0.05700
C4487       C  0.63752180  0.24210078  0.58310389    -0.10200
C4488       C  0.64906899  0.24325596  0.59173117    -0.11900
C4489       C  0.65497640  0.26133276  0.58758734    -0.01600
C4490       C  0.64910081  0.27806215  0.57421172    -0.10800
C4491       C  0.61934451  0.25852930  0.56250113     0.05700
H4492       H  0.63312633  0.22812045  0.58712183     0.07600
H4493       H  0.65334904  0.23004837  0.60171794     0.11100
H4494       H  0.65334710  0.29218387  0.57014508     0.11400
H4495       H  0.63349074  0.29008516  0.55502608     0.07700
C4496       C  0.61263763  0.27470630  0.57356083    -0.11500
C4497       C  0.60122972  0.27534401  0.56438103    -0.10700
C4498       C  0.59610536  0.25974825  0.54401949    -0.01700
C4499       C  0.60270538  0.24320389  0.53381463    -0.11800
C4500       C  0.61422996  0.24260220  0.54298713    -0.10200
H4501       H  0.61623263  0.28699700  0.58939509     0.07700
H4502       H  0.59642226  0.28818837  0.57336023     0.11400
H4503       H  0.59900760  0.23087275  0.51837965     0.11100
H4504       H  0.61919138  0.22994880  0.53399328     0.07700
C4505       C  0.76261389  0.27736387  0.25693659    -0.11400
C4506       C  0.75631375  0.25989240  0.26264797     0.05700
C4507       C  0.76043748  0.24554807  0.28819228    -0.10200
C4508       C  0.77086372  0.24819585  0.30609832    -0.11900
C4509       C  0.77733548  0.26535675  0.29918073    -0.01600
C4510       C  0.77293554  0.28011816  0.27514327    -0.10800
C4511       C  0.74558443  0.25659508  0.24163128     0.05700
H4512       H  0.75567153  0.23214028  0.29404307     0.07600
H4513       H  0.77399275  0.23655241  0.32448933     0.11100
H4514       H  0.77771571  0.29346252  0.26884784     0.11400
H4515       H  0.75980115  0.28864426  0.23721901     0.07700
C4516       C  0.73833735  0.27259791  0.23381579    -0.11500
C4517       C  0.72805593  0.26942875  0.21552035    -0.10700
C4518       C  0.72467220  0.25013239  0.20498753    -0.01700
C4519       C  0.73210518  0.23422308  0.21135849    -0.11800
C4520       C  0.74246072  0.23743487  0.22931781    -0.10200
H4521       H  0.74038302  0.28752562  0.24314562     0.07700
H4522       H  0.72250589  0.28201632  0.21144341     0.11400
H4523       H  0.72977174  0.21917057  0.20358868     0.11100
H4524       H  0.74796273  0.22484316  0.23392636     0.07700
C4525       C  0.69540708  0.26667653  0.85070638    -0.11400
C4526       C  0.69111746  0.25163129  0.87452821     0.05700
C4527       C  0.68527170  0.23559499  0.85786694    -0.10200
C4528       C  0.68394742  0.23450006  0.81846412    -0.11900
C4529       C  0.68818598  0.24965241  0.79498988    -0.01600
C4530       C  0.69381450  0.26583412  0.81152606    -0.10800
C4531       C  0.69240371  0.25316124  0.91652231     0.05700
H4532       H  0.68166041  0.22392281  0.87519643     0.07600
H4533       H  0.67967975  0.22174058  0.80627389     0.11100
H4534       H  0.69747572  0.27738803  0.79396011     0.11400
H4535       H  0.70022403  0.27898532  0.86215792     0.07700
C4536       C  0.69339877  0.23612939  0.93963461    -0.11500
C4537       C  0.69377743  0.23789845  0.97928925    -0.10700
C4538       C  0.69332462  0.25674821  0.99654257    -0.01700
C4539       C  0.69285744  0.27371039  0.97327191    -0.11800
C4540       C  0.69228190  0.27194044  0.93401519    -0.10200
H4541       H  0.69376175  0.22142012  0.92717350     0.07700
H4542       H  0.69417531  0.22453701  0.99638578     0.11400
H4543       H  0.69241567  0.28850374  0.98538196     0.11100
H4544       H  0.69128759  0.28540445  0.91755764     0.07700
C4545       C  0.68806845  0.23557838  0.35841234    -0.11400
C4546       C  0.69246220  0.25308193  0.37473019     0.05700
C4547       C  0.69545784  0.26891540  0.35049245    -0.10200
C4548       C  0.69397755  0.26737930  0.31126388    -0.11900
C4549       C  0.68973686  0.24980513  0.29514685    -0.01600
C4550       C  0.68684689  0.23388696  0.31908658    -0.10800
C4551       C  0.69347155  0.25514728  0.41679274     0.05700
H4552       H  0.69914371  0.28244926  0.36165499     0.07600
H4553       H  0.69658609  0.27966414  0.29339330     0.11100
H4554       H  0.68364885  0.22008213  0.30734442     0.11400
H4555       H  0.68543831  0.22320542  0.37595492     0.07700
C4556       C  0.69183308  0.27377399  0.43404325    -0.11500
C4557       C  0.69194933  0.27571758  0.47337886    -0.10700
C4558       C  0.69349030  0.25904266  0.49688477    -0.01700
C4559       C  0.69547868  0.24046141  0.47989321    -0.11800
C4560       C  0.69556771  0.23856567  0.44026494    -0.10200
H4561       H  0.68997813  0.28685515  0.41732875     0.07700
H4562       H  0.69032277  0.29027981  0.48533794     0.11400
H4563       H  0.69676890  0.22734672  0.49717248     0.11100
H4564       H  0.69714955  0.22404673  0.42811149     0.07700
C4565       C  0.61329194  0.27579112  0.06889532    -0.11400
C4566       C  0.61953985  0.25838505  0.06279159     0.05700
C4567       C  0.61399830  0.24151887  0.04807215    -0.10200
C4568       C  0.60247642  0.24227369  0.03882301    -0.11900
C4569       C  0.59628331  0.25987409  0.04443465    -0.01600
C4570       C  0.60186394  0.27653082  0.05990819    -0.10800
C4571       C  0.63186866  0.25844195  0.07052293     0.05700
H4572       H  0.61863278  0.22792267  0.04292572     0.07600
H4573       H  0.59843890  0.22914198  0.02722972     0.11100
H4574       H  0.59741315  0.29031910  0.06505580     0.11400
H4575       H  0.61726943  0.28893065  0.08072899     0.07700
C4576       C  0.63842991  0.27473812  0.05887991    -0.11500
C4577       C  0.64991205  0.27559772  0.06706766    -0.10700
C4578       C  0.65522317  0.26016314  0.08717294    -0.01700
C4579       C  0.64871364  0.24365012  0.09845541    -0.11800
C4580       C  0.63713438  0.24279161  0.09015217    -0.10200
H4581       H  0.63466577  0.28686972  0.04317622     0.07700
H4582       H  0.65463901  0.28843777  0.05741636     0.11400
H4583       H  0.65253879  0.23150301  0.11392426     0.11100
H4584       H  0.63225580  0.23010617  0.09967945     0.07700
C4585       C  0.51268715  0.98719285  0.73478968    -0.11400
C4586       C  0.50542480  0.00316246  0.74288457     0.05700
C4587       C  0.50882749  0.02248101  0.73251383    -0.10200
C4588       C  0.51934408  0.02580326  0.71559111    -0.11900
C4589       C  0.52672711  0.00988014  0.70843722    -0.01600
C4590       C  0.52317201  0.99049504  0.71772931    -0.10800
C4591       C  0.49436239  0.99965313  0.76197137     0.05700
H4592       H  0.50337041  0.03509231  0.73757101     0.07600
H4593       H  0.52179786  0.04094097  0.70898821     0.11100
H4594       H  0.52866512  0.97787739  0.71312113     0.11400
H4595       H  0.51043233  0.97214085  0.74271560     0.07700
C4596       C  0.48793414  0.98264293  0.75336476    -0.11500
C4597       C  0.47740341  0.97959350  0.77014465    -0.10700
C4598       C  0.47292729  0.99354678  0.79581387    -0.01700
C4599       C  0.47944417  0.01035434  0.80516714    -0.11800
C4600       C  0.49005522  0.01332354  0.78857240    -0.10200
H4601       H  0.49087050  0.97193180  0.73267397     0.07700
H4602       H  0.47258297  0.96660030  0.76181157     0.11400
H4603       H  0.47625668  0.02141759  0.82474882     0.11100
H4604       H  0.49486414  0.02639794  0.79646518     0.07700
C4605       C  0.56546361  0.10311695  0.55270953    -0.11400
C4606       C  0.56186082  0.11958393  0.57410123     0.05700
C4607       C  0.55777468  0.11651215  0.61099811    -0.10200
C4608       C  0.55723579  0.09734324  0.62615717    -0.11900
C4609       C  0.56092459  0.08088349  0.60492153    -0.01600
C4610       C  0.56508193  0.08395202  0.56808408    -0.10800
C4611       C  0.56207144  0.13985990  0.55765930     0.05700
H4612       H  0.55481718  0.12891826  0.62788442     0.07600
H4613       H  0.55401840  0.09542617  0.65467775     0.11100
H4614       H  0.56793717  0.07152766  0.55104100     0.11400
H4615       H  0.56868082  0.10511163  0.52421169     0.07700
C4616       C  0.55796276  0.14309863  0.52088579    -0.11500
C4617       C  0.55770825  0.16226333  0.50574132    -0.10700
C4618       C  0.56167154  0.17861554  0.52686205    -0.01700
C4619       C  0.56600904  0.17535124  0.56339592    -0.11800
C4620       C  0.56611953  0.15614700  0.57878168    -0.10200
H4621       H  0.55470899  0.13084419  0.50413562     0.07700
H4622       H  0.55438448  0.16427713  0.47739274     0.11400
H4623       H  0.56912285  0.18766201  0.58029029     0.11100
H4624       H  0.56941122  0.15398965  0.60712997     0.07700
C4625       C  0.48983060  0.01421938  0.28526057    -0.11400
C4626       C  0.49449077  0.99935995  0.26185695     0.05700
C4627       C  0.48844777  0.98150849  0.25704677    -0.10200
C4628       C  0.47789900  0.97884201  0.27411180    -0.11900
C4629       C  0.47303648  0.99399438  0.29633128    -0.01600
C4630       C  0.47923076  0.01160610  0.30215626    -0.10800
C4631       C  0.50550481  0.00257734  0.24214655     0.05700
H4632       H  0.49168303  0.96980721  0.23898027     0.07600
H4633       H  0.47335546  0.96514856  0.26857188     0.11100
H4634       H  0.47577397  0.02359391  0.31904929     0.11400
H4635       H  0.49434491  0.02798715  0.29033012     0.07700
C4636       C  0.50841894  0.02142292  0.22770635    -0.11500
C4637       C  0.51893338  0.02469359  0.21073239    -0.10700
C4638       C  0.52681130  0.00917594  0.20751536    -0.01700
C4639       C  0.52373713  0.99014435  0.22064270    -0.11800
C4640       C  0.51324215  0.98690200  0.23778376    -0.10200
H4641       H  0.50258683  0.03373912  0.22972399     0.07700
H4642       H  0.52099128  0.03953990  0.20097008     0.11400
H4643       H  0.52961982  0.97787572  0.21909099     0.11100
H4644       H  0.51135709  0.97223394  0.24879557     0.07700
C4645       C  0.55760581  0.98703286  0.93504569    -0.11400
C4646       C  0.56126205  0.00484521  0.91823150     0.05700
C4647       C  0.56356984  0.02134118  0.94161813    -0.10200
C4648       C  0.56227207  0.02007413  0.98085825    -0.11900
C4649       C  0.55879091  0.00218423  0.99775820    -0.01600
C4650       C  0.55640210  0.98570276  0.97438658    -0.10800
C4651       C  0.56218121  0.00663585  0.87639231     0.05700
H4652       H  0.56658425  0.03519833  0.92964379     0.07600
H4653       H  0.56440538  0.03291706  0.99802907     0.11100
H4654       H  0.55377676  0.97163768  0.98653029     0.11400
H4655       H  0.55557747  0.97417323  0.91779728     0.07700
C4656       C  0.56614551  0.99085540  0.85370120    -0.11500
C4657       C  0.56647911  0.99269712  0.81407193    -0.10700
C4658       C  0.56292424  0.01039976  0.79661110    -0.01700
C4659       C  0.55919710  0.02619926  0.81957960    -0.11800
C4660       C  0.55876500  0.02429511  0.85875986    -0.10200
H4661       H  0.56895867  0.97711122  0.86655412     0.07700
H4662       H  0.56938039  0.98025663  0.79717653     0.11400
H4663       H  0.55626115  0.04000880  0.80729327     0.11100
H4664       H  0.55542939  0.03656444  0.87517941     0.07700
C4665       C  0.56375168  0.02479995  0.44230990    -0.11400
C4666       C  0.56096778  0.00886426  0.41803026     0.05700
C4667       C  0.55666251  0.99128674  0.43413406    -0.10200
C4668       C  0.55555232  0.98941117  0.47342552    -0.11900
C4669       C  0.55861142  0.00513272  0.49771875    -0.01600
C4670       C  0.56253132  0.02299264  0.48164904    -0.10800
C4671       C  0.56236060  0.01061306  0.37610686     0.05700
H4672       H  0.55414067  0.97890077  0.41638232     0.07600
H4673       H  0.55249171  0.97544484  0.48481565     0.11100
H4674       H  0.56511418  0.03530225  0.49953266     0.11400
H4675       H  0.56720163  0.03850436  0.43106756     0.07700
C4676       C  0.56027159  0.02878175  0.35781906    -0.11500
C4677       C  0.56084172  0.03021812  0.31839867    -0.10700
C4678       C  0.56339992  0.01347708  0.29594673    -0.01700
C4679       C  0.56590582  0.99544487  0.31418319    -0.11800
C4680       C  0.56543614  0.99405395  0.35382748    -0.10200
H4681       H  0.55776579  0.04180017  0.37379832     0.07700
H4682       H  0.55886657  0.04440372  0.30549466     0.11400
H4683       H  0.56796164  0.98229420  0.29783776     0.11100
H4684       H  0.56737614  0.97992471  0.36698413     0.07700
C4685       C  0.55066412  0.14750593  0.03382972    -0.11400
C4686       C  0.55983611  0.14032977  0.05487962     0.05700
C4687       C  0.56902026  0.15310332  0.06179947    -0.10200
C4688       C  0.56901341  0.17267485  0.04797680    -0.11900
C4689       C  0.55990943  0.17972811  0.02635316    -0.01600
C4690       C  0.55073932  0.16689860  0.01947966    -0.10800
C4691       C  0.55972454  0.11964179  0.06984046     0.05700
H4692       H  0.57615245  0.14799293  0.07825639     0.07600
H4693       H  0.57621079  0.18216506  0.05363282     0.11100
H4694       H  0.54358090  0.17185856  0.00297868     0.11400
H4695       H  0.54350024  0.13797221  0.02793297     0.07700
C4696       C  0.55018493  0.11227875  0.08885109    -0.11500
C4697       C  0.55011932  0.09300335  0.10381414    -0.10700
C4698       C  0.55951068  0.08047405  0.09949049    -0.01700
C4699       C  0.56895797  0.08765184  0.07963944    -0.11800
C4700       C  0.56910642  0.10711966  0.06530397    -0.10200
H4701       H  0.54285372  0.12161483  0.09286378     0.07700
H4702       H  0.54269944  0.08790284  0.11886700     0.11400
H4703       H  0.57632948  0.07837834  0.07598409     0.11100
H4704       H  0.57652701  0.11236989  0.05044680     0.07700
C4705       C  0.74243478  0.02225011  0.90456083    -0.11400
C4706       C  0.74505401  0.00352819  0.88907238     0.05700
C4707       C  0.73722895  0.98794055  0.89315110    -0.10200
C4708       C  0.72689270  0.99113932  0.91117931    -0.11900
C4709       C  0.72408742  0.01004035  0.92551596    -0.01600
C4710       C  0.73207422  0.02547788  0.92254426    -0.10800
C4711       C  0.75588224  0.00024996  0.86866925     0.05700
H4712       H  0.73893939  0.97339225  0.88127485     0.07600
H4713       H  0.72090483  0.97896607  0.91242103     0.11100
H4714       H  0.73019744  0.04022849  0.93316338     0.11400
H4715       H  0.74837552  0.03446257  0.90253336     0.07700
C4716       C  0.76025457  0.01475673  0.84390804    -0.11500
C4717       C  0.77068825  0.01197859  0.82608801    -0.10700
C4718       C  0.77698582  0.99460590  0.83258825    -0.01700
C4719       C  0.77240177  0.97982501  0.85634015    -0.11800
C4720       C  0.76200260  0.98262322  0.87415550    -0.10200
H4721       H  0.75563973  0.02834561  0.83854122     0.07700
H4722       H  0.77395534  0.02368275  0.80804439     0.11400
H4723       H  0.77704500  0.96634680  0.86240298     0.11100
H4724       H  0.75892934  0.97123361  0.89327579     0.07700
C4725       C  0.68117114  0.10703006  0.06750080    -0.11400
C4726       C  0.69004826  0.12024161  0.05961196     0.05700
C4727       C  0.69915963  0.11379081  0.03757668    -0.10200
C4728       C  0.69939835  0.09446565  0.02338675    -0.11900
C4729       C  0.69058962  0.08109418  0.03135874    -0.01600
C4730       C  0.68148174  0.08750024  0.05371891    -0.10800
C4731       C  0.69006517  0.14063969  0.07491416     0.05700
H4732       H  0.70605963  0.12380984  0.03105824     0.07600
H4733       H  0.70652394  0.08998859  0.00621415     0.11100
H4734       H  0.67455716  0.07752250  0.06011312     0.11400
H4735       H  0.67410408  0.11175413  0.08471217     0.07700
C4736       C  0.68090565  0.15341274  0.06880315    -0.11500
C4737       C  0.68123626  0.17298105  0.08234657    -0.10700
C4738       C  0.69064213  0.17984335  0.10279357    -0.01700
C4739       C  0.69974934  0.16693908  0.10898772    -0.11800
C4740       C  0.69949408  0.14757748  0.09493324    -0.10200
H4741       H  0.67359522  0.14832235  0.05312442     0.07700
H4742       H  0.67408740  0.18262048  0.07738412     0.11400
H4743       H  0.70711431  0.17183415  0.12460155     0.11100
H4744       H  0.70662976  0.13791165  0.09998871     0.07700
C4745       C  0.63796170  0.98640819  0.07310298    -0.11400
C4746       C  0.63149620  0.00297369  0.06259071     0.05700
C4747       C  0.63686317  0.01898811  0.04422436    -0.10200
C4748       C  0.64841548  0.01811660  0.03563636    -0.11900
C4749       C  0.65477906  0.00121158  0.04530315    -0.01600
C4750       C  0.64939605  0.98550310  0.06449794    -0.10800
C4751       C  0.61914745  0.00282599  0.06978867     0.05700
H4752       H  0.63208019  0.03193205  0.03569161     0.07600
H4753       H  0.65232173  0.03053172  0.02109132     0.11100
H4754       H  0.65401917  0.97237257  0.07301704     0.11400
H4755       H  0.63415514  0.97402775  0.08806423     0.07700
C4756       C  0.61300034  0.98523951  0.06368833    -0.11500
C4757       C  0.60155962  0.98425805  0.07216079    -0.10700
C4758       C  0.59585145  0.00087752  0.08688248    -0.01700
C4759       C  0.60190502  0.01870914  0.09221890    -0.11800
C4760       C  0.61346044  0.01968105  0.08367101    -0.10200
H4761       H  0.61705719  0.97212514  0.05223021     0.07700
H4762       H  0.59719864  0.97032452  0.06715624     0.11400
H4763       H  0.59774373  0.03182962  0.10319345     0.11100
H4764       H  0.61799373  0.03343460  0.08872123     0.07700
C4765       C  0.76267394  0.98418773  0.38121488    -0.11400
C4766       C  0.75605157  0.00104149  0.37384386     0.05700
C4767       C  0.75984286  0.01478457  0.34647635    -0.10200
C4768       C  0.77013598  0.01197811  0.32770743    -0.11900
C4769       C  0.77682260  0.99524609  0.33556908    -0.01600
C4770       C  0.77287997  0.98129000  0.36225245    -0.10800
C4771       C  0.74524047  0.00420529  0.39456527     0.05700
H4772       H  0.75485632  0.02775399  0.33957518     0.07600
H4773       H  0.77294129  0.02306581  0.30750470     0.11100
H4774       H  0.77789379  0.96842228  0.36964753     0.11400
H4775       H  0.76012514  0.97345519  0.40245656     0.07700
C4776       C  0.73806141  0.98807544  0.40278289    -0.11500
C4777       C  0.72759919  0.99116724  0.42009613    -0.10700
C4778       C  0.72402425  0.01048465  0.42958097    -0.01700
C4779       C  0.73143426  0.02650463  0.42301799    -0.11800
C4780       C  0.74190156  0.02340090  0.40573142    -0.10200
H4781       H  0.74031336  0.97310047  0.39441502     0.07700
H4782       H  0.72210414  0.97848056  0.42445930     0.11400
H4783       H  0.72898326  0.04159091  0.42992101     0.11100
H4784       H  0.74732647  0.03610221  0.40065850     0.07700
C4785       C  0.69094923  0.02953420  0.77504658    -0.11400
C4786       C  0.68836921  0.01150581  0.75693987     0.05700
C4787       C  0.68525996  0.99499350  0.77919860    -0.10200
C4788       C  0.68506477  0.99635822  0.81882368    -0.11900
C4789       C  0.68794850  0.01428918  0.83693896    -0.01600
C4790       C  0.69073363  0.03092009  0.81448213    -0.10800
C4791       C  0.68936076  0.00981576  0.71509779     0.05700
H4792       H  0.68305803  0.98096682  0.76595863     0.07600
H4793       H  0.68286827  0.98329325  0.83522316     0.11100
H4794       H  0.69305103  0.04498681  0.82734434     0.11400
H4795       H  0.69350617  0.04244150  0.75877930     0.07700
C4796       C  0.68581196  0.02537453  0.69128372    -0.11500
C4797       C  0.68681450  0.02371291  0.65188233    -0.10700
C4798       C  0.69134313  0.00641559  0.63548319    -0.01700
C4799       C  0.69508975  0.99105653  0.65938620    -0.11800
C4800       C  0.69412752  0.99275478  0.69870370    -0.10200
H4801       H  0.68201388  0.03864517  0.70307380     0.07700
H4802       H  0.68367003  0.03566743  0.63425535     0.11400
H4803       H  0.69860555  0.97752190  0.64768129     0.11100
H4804       H  0.69715747  0.98070614  0.71631080     0.07700
C4805       C  0.69401509  0.98848016  0.19767345    -0.11400
C4806       C  0.69085848  0.00647632  0.21486336     0.05700
C4807       C  0.68867819  0.02306539  0.19165601    -0.10200
C4808       C  0.68942369  0.02158161  0.15219925    -0.11900
C4809       C  0.69228018  0.00342374  0.13497578    -0.01600
C4810       C  0.69470368  0.98696061  0.15821916    -0.10800
C4811       C  0.69003083  0.00809445  0.25682834     0.05700
H4812       H  0.68609889  0.03710777  0.20393037     0.07600
H4813       H  0.68736447  0.03448288  0.13518629     0.11100
H4814       H  0.69692970  0.97273132  0.14591896     0.11400
H4815       H  0.69597744  0.97555109  0.21472093     0.07700
C4816       C  0.68573691  0.99236924  0.27903678    -0.11500
C4817       C  0.68525025  0.99400646  0.31868214    -0.10700
C4818       C  0.68898412  0.01145433  0.33677533    -0.01700
C4819       C  0.69313910  0.02717900  0.31433730    -0.11800
C4820       C  0.69369580  0.02548826  0.27505265    -0.10200
H4821       H  0.68270967  0.97883916  0.26576647     0.07700
H4822       H  0.68202420  0.98162737  0.33509768     0.11400
H4823       H  0.69622094  0.04080334  0.32712344     0.11100
H4824       H  0.69725261  0.03771794  0.25900917     0.07700
C4825       C  0.68096269  0.10748605  0.56915315    -0.11400
C4826       C  0.68902696  0.12147039  0.55708053     0.05700
C4827       C  0.69709627  0.11580007  0.53018289    -0.10200
C4828       C  0.69717715  0.09650446  0.51568653    -0.11900
C4829       C  0.68925834  0.08229464  0.52805180    -0.01600
C4830       C  0.68112051  0.08798555  0.55493854    -0.10800
C4831       C  0.68929263  0.14186979  0.57285289     0.05700
H4832       H  0.70332579  0.12638614  0.52020865     0.07600
H4833       H  0.70352966  0.09271232  0.49486325     0.11100
H4834       H  0.67488766  0.07741309  0.56489669     0.11400
H4835       H  0.67468844  0.11156279  0.59005491     0.07700
C4836       C  0.67959615  0.15380164  0.57287246    -0.11500
C4837       C  0.68007468  0.17334920  0.58659752    -0.10700
C4838       C  0.69018439  0.18103654  0.60137976    -0.01700
C4839       C  0.69983295  0.16900452  0.60170167    -0.11800
C4840       C  0.69942301  0.14968977  0.58715539    -0.10200
H4841       H  0.67171772  0.14809078  0.56174569     0.07700
H4842       H  0.67250517  0.18232102  0.58639123     0.11400
H4843       H  0.70772275  0.17460771  0.61294904     0.11100
H4844       H  0.70699742  0.14072912  0.58748291     0.07700
C4845       C  0.61262467  0.98421692  0.56448119    -0.11400
C4846       C  0.61902527  0.00124978  0.57298222     0.05700
C4847       C  0.61361187  0.01766727  0.58973933    -0.10200
C4848       C  0.60204517  0.01693824  0.59797635    -0.11900
C4849       C  0.59570149  0.99976701  0.58960459    -0.01600
C4850       C  0.60117174  0.98344613  0.57281480    -0.10800
C4851       C  0.63130565  0.00145176  0.56457110     0.05700
H4852       H  0.61834063  0.03094418  0.59693347     0.07600
H4853       H  0.59808573  0.02977159  0.61087301     0.11100
H4854       H  0.59658361  0.97000779  0.56564397     0.11400
H4855       H  0.61644461  0.97145999  0.55085033     0.07700
C4856       C  0.63767543  0.98412778  0.57019118    -0.11500
C4857       C  0.64904994  0.98360615  0.56068341    -0.10700
C4858       C  0.65447199  0.00046303  0.54556259    -0.01700
C4859       C  0.64818495  0.01796988  0.54041135    -0.11800
C4860       C  0.63669816  0.01845979  0.54986312    -0.10200
H4861       H  0.63387434  0.97089320  0.58221659     0.07700
H4862       H  0.65360377  0.96988719  0.56542962     0.11400
H4863       H  0.65212884  0.03125294  0.52912226     0.11100
H4864       H  0.63199560  0.03200069  0.54497720     0.07700
C4865       C  0.49120128  0.74384082  0.59521401    -0.11400
C4866       C  0.49587802  0.76017637  0.61480439     0.05700
C4867       C  0.49046401  0.77870900  0.61195838    -0.10200
C4868       C  0.48041281  0.78064532  0.59165397    -0.11900
C4869       C  0.47538201  0.76405321  0.57402831    -0.01600
C4870       C  0.48105959  0.74572650  0.57524208    -0.10800
C4871       C  0.50630360  0.75787176  0.63814927     0.05700
H4872       H  0.49370970  0.79162893  0.62673481     0.07600
H4873       H  0.47628380  0.79499669  0.59152674     0.11100
H4874       H  0.47745693  0.73262627  0.56200097     0.11400
H4875       H  0.49529042  0.72946585  0.59568371     0.07700
C4876       C  0.50857460  0.73993691  0.65731456    -0.11500
C4877       C  0.51881778  0.73714927  0.67626069    -0.10700
C4878       C  0.52698900  0.75232215  0.67693685    -0.01700
C4879       C  0.52437861  0.77074148  0.66019807    -0.11800
C4880       C  0.51422295  0.77342798  0.64082738    -0.10200
H4881       H  0.50253727  0.72783716  0.65702845     0.07700
H4882       H  0.52052141  0.72280815  0.68899011     0.11400
H4883       H  0.53048508  0.78274895  0.65990770     0.11100
H4884       H  0.51286818  0.78741695  0.62637488     0.07700
C4885       C  0.56636401  0.86150788  0.72666421    -0.11400
C4886       C  0.56071097  0.86916904  0.69501611     0.05700
C4887       C  0.55614690  0.85589027  0.66814804    -0.10200
C4888       C  0.55737826  0.83531275  0.67260946    -0.11900
C4889       C  0.56331869  0.82770621  0.70378033    -0.01600
C4890       C  0.56770023  0.84102603  0.73090577    -0.10800
C4891       C  0.56044072  0.89092801  0.68853439     0.05700
H4892       H  0.55168709  0.86146146  0.64356615     0.07600
H4893       H  0.55381627  0.82540028  0.65151572     0.11100
H4894       H  0.57220072  0.83562561  0.75554590     0.11400
H4895       H  0.57007553  0.87138764  0.74752745     0.07700
C4896       C  0.55805503  0.90435591  0.71816941    -0.11500
C4897       C  0.55859194  0.92495228  0.71195935    -0.10700
C4898       C  0.56174934  0.93231893  0.67625666    -0.01700
C4899       C  0.56400952  0.91883690  0.64673266    -0.11800
C4900       C  0.56330384  0.89841711  0.65273347    -0.10200
H4901       H  0.55581162  0.89890340  0.74607142     0.07700
H4902       H  0.55680274  0.93505665  0.73512933     0.11400
H4903       H  0.56636994  0.92409489  0.61879043     0.11100
H4904       H  0.56534405  0.88844945  0.62958005     0.07700
C4905       C  0.49028090  0.74196113  0.08867075    -0.11400
C4906       C  0.49519357  0.75790438  0.10879096     0.05700
C4907       C  0.48973858  0.77644375  0.10818200    -0.10200
C4908       C  0.47950095  0.77883408  0.08922363    -0.11900
C4909       C  0.47429953  0.76269334  0.07067817    -0.01600
C4910       C  0.47993858  0.74430408  0.06995511    -0.10800
C4911       C  0.50587223  0.75528905  0.13066543     0.05700
H4912       H  0.49314029  0.78901962  0.12363703     0.07600
H4913       H  0.47539678  0.79318564  0.09076713     0.11100
H4914       H  0.47618303  0.73152811  0.05605889     0.11400
H4915       H  0.49435780  0.72757816  0.08772876     0.07700
C4916       C  0.50824779  0.73730787  0.14948477    -0.11500
C4917       C  0.51849635  0.73466875  0.16855397    -0.10700
C4918       C  0.52657959  0.75001693  0.16961166    -0.01700
C4919       C  0.52397914  0.76828128  0.15233033    -0.11800
C4920       C  0.51381598  0.77083121  0.13292079    -0.10200
H4921       H  0.50223196  0.72517123  0.14920889     0.07700
H4922       H  0.52022305  0.72039541  0.18152478     0.11400
H4923       H  0.53005579  0.78033503  0.15203265     0.11100
H4924       H  0.51239370  0.78480264  0.11846866     0.07700
C4925       C  0.56486436  0.89888129  0.15102579    -0.11400
C4926       C  0.55994443  0.89080287  0.18372118     0.05700
C4927       C  0.55590935  0.90385971  0.21193524    -0.10200
C4928       C  0.55695903  0.92457235  0.20771627    -0.11900
C4929       C  0.56225292  0.93256664  0.17551317    -0.01600
C4930       C  0.56606387  0.91944855  0.14708098    -0.10800
C4931       C  0.55996599  0.86887046  0.18957353     0.05700
H4932       H  0.55202468  0.89800814  0.23740010     0.07600
H4933       H  0.55384008  0.93427468  0.22987644     0.11100
H4934       H  0.57005395  0.92507933  0.12161204     0.11400
H4935       H  0.56816067  0.88924765  0.12903854     0.07700
C4936       C  0.55696522  0.85556990  0.16026810    -0.11500
C4937       C  0.55789233  0.83488950  0.16544076    -0.10700
C4938       C  0.56208645  0.82721891  0.19969355    -0.01700
C4939       C  0.56494834  0.84058360  0.22894145    -0.11800
C4940       C  0.56382875  0.86108277  0.22405122    -0.10200
H4941       H  0.55394305  0.86119342  0.13335907     0.07700
H4942       H  0.55556638  0.82496344  0.14250660     0.11400
H4943       H  0.56808728  0.83517802  0.25587015     0.11100
H4944       H  0.56634322  0.87090706  0.24692763     0.07700
C4945       C  0.55832819  0.73189527  0.01948782    -0.11400
C4946       C  0.56140557  0.74969168  0.00141781     0.05700
C4947       C  0.56514617  0.76578608  0.02378977    -0.10200
C4948       C  0.56554019  0.76424113  0.06337926    -0.11900
C4949       C  0.56226863  0.74651775  0.08142343    -0.01600
C4950       C  0.55878783  0.73030444  0.05889105    -0.10800
C4951       C  0.56058192  0.75148112  0.95946492     0.05700
H4952       H  0.56777654  0.77960381  0.01069240     0.07600
H4953       H  0.56826287  0.77699497  0.07982518     0.11100
H4954       H  0.55611840  0.71643114  0.07170097     0.11400
H4955       H  0.55526621  0.71930876  0.00325625     0.07700
C4956       C  0.56339496  0.73538118  0.93574220    -0.11500
C4957       C  0.56295152  0.73731497  0.89627861    -0.10700
C4958       C  0.55976299  0.75543948  0.87965224    -0.01700
C4959       C  0.55661875  0.77132608  0.90337716    -0.11800
C4960       C  0.55698980  0.76934686  0.94277667    -0.10200
H4961       H  0.56628773  0.72145345  0.94763236     0.07700
H4962       H  0.56552552  0.72485061  0.87883765     0.11400
H4963       H  0.55406024  0.78547078  0.89151180     0.11100
H4964       H  0.55449734  0.78186722  0.96018500     0.07700
C4965       C  0.56118365  0.73891730  0.43686879    -0.11400
C4966       C  0.55782283  0.75515877  0.45938341     0.05700
C4967       C  0.55402845  0.77253089  0.44140289    -0.10200
C4968       C  0.55388512  0.77381501  0.40182292    -0.11900
C4969       C  0.55749217  0.75772210  0.37933859    -0.01600
C4970       C  0.56098122  0.74015351  0.39732449    -0.10800
C4971       C  0.55836881  0.75387629  0.50142215     0.05700
H4972       H  0.55120377  0.78515609  0.45793948     0.07600
H4973       H  0.55112961  0.78756582  0.38883366     0.11100
H4974       H  0.56397087  0.72760511  0.38089018     0.11400
H4975       H  0.56429909  0.72540642  0.44983138     0.07700
C4976       C  0.55533727  0.73612821  0.51966396    -0.11500
C4977       C  0.55619879  0.73439702  0.55890095    -0.10700
C4978       C  0.56008052  0.75040246  0.58122618    -0.01700
C4979       C  0.56297831  0.76833007  0.56313304    -0.11800
C4980       C  0.56212682  0.77004907  0.52357080    -0.10200
H4981       H  0.55219802  0.72354240  0.50358406     0.07700
H4982       H  0.55374011  0.72040427  0.57171118     0.11400
H4983       H  0.56588220  0.78099356  0.57948143     0.11100
H4984       H  0.56459646  0.78390425  0.51026149     0.07700
C4985       C  0.74345142  0.73895216  0.97308933    -0.11400
C4986       C  0.74665421  0.75755781  0.98792336     0.05700
C4987       C  0.73921722  0.77369353  0.98363086    -0.10200
C4988       C  0.72867045  0.77109442  0.96648135    -0.11900
C4989       C  0.72525624  0.75226527  0.95329631    -0.01600
C4990       C  0.73289671  0.73633417  0.95604987    -0.10800
C4991       C  0.75758764  0.76006602  0.00838500     0.05700
H4992       H  0.74134163  0.78821043  0.99492598     0.07600
H4993       H  0.72299105  0.78366373  0.96517689     0.11100
H4994       H  0.73058535  0.72161756  0.94615829     0.11400
H4995       H  0.74905632  0.72630818  0.97504275     0.07700
C4996       C  0.76181181  0.74496734  0.03214630    -0.11500
C4997       C  0.77216096  0.74730283  0.05087929    -0.10700
C4998       C  0.77851155  0.76484950  0.04648679    -0.01700
C4999       C  0.77415449  0.78006517  0.02332894    -0.11800
C5000       C  0.76387872  0.77768202  0.00448713    -0.10200
H5001       H  0.75710895  0.73131958  0.03633967     0.07700
H5002       H  0.77528214  0.73520991  0.06819642     0.11400
H5003       H  0.77885597  0.79368147  0.01870897     0.11100
H5004       H  0.76100687  0.78950152  0.98604709     0.07700
C5005       C  0.69384227  0.90578185  0.91548719    -0.11400
C5006       C  0.69017872  0.89236015  0.94360055     0.05700
C5007       C  0.68570915  0.89985627  0.97747102    -0.10200
C5008       C  0.68468027  0.92029870  0.98291843    -0.11900
C5009       C  0.68821186  0.93379260  0.95480004    -0.01600
C5010       C  0.69297016  0.92637613  0.92120126    -0.10800
C5011       C  0.69027033  0.87059391  0.93697552     0.05700
H5012       H  0.68269916  0.88986728  0.99936299     0.07600
H5013       H  0.68109476  0.92554134  0.00934674     0.11100
H5014       H  0.69582567  0.93644155  0.89921271     0.11400
H5015       H  0.69735400  0.90031414  0.88911918     0.07700
C5016       C  0.68593528  0.86289362  0.90303433    -0.11500
C5017       C  0.68505911  0.84239376  0.89773093    -0.10700
C5018       C  0.68863280  0.82906636  0.92604627    -0.01700
C5019       C  0.69322350  0.83671424  0.95974061    -0.11800
C5020       C  0.69393631  0.85733933  0.96530565    -0.10200
H5021       H  0.68291532  0.87275146  0.88098866     0.07700
H5022       H  0.68158037  0.83697098  0.87124953     0.11400
H5023       H  0.69608388  0.82679262  0.98191188     0.11100
H5024       H  0.69733092  0.86296310  0.99175231     0.07700
C5025       C  0.63933293  0.77451024  0.80331232    -0.11400
C5026       C  0.63311223  0.75719819  0.81103672     0.05700
C5027       C  0.63856919  0.74104657  0.82841809    -0.10200
C5028       C  0.64995862  0.74254987  0.83909558    -0.11900
C5029       C  0.65606479  0.76021226  0.83240208    -0.01600
C5030       C  0.65061512  0.77601211  0.81382912    -0.10800
C5031       C  0.62079898  0.75702052  0.80341330     0.05700
H5032       H  0.63393913  0.72755159  0.83480410     0.07600
H5033       H  0.65393268  0.73001492  0.85292508     0.11100
H5034       H  0.65504484  0.78972314  0.80750837     0.11400
H5035       H  0.63539333  0.78707818  0.78944235     0.07700
C5036       C  0.61434746  0.77343268  0.81471007    -0.11500
C5037       C  0.60287977  0.77430008  0.80673725    -0.10700
C5038       C  0.59743633  0.75874818  0.78717689    -0.01700
C5039       C  0.60383157  0.74205817  0.77625889    -0.11800
C5040       C  0.61543488  0.74118242  0.78442205    -0.10200
H5041       H  0.61820208  0.78569198  0.82995250     0.07700
H5042       H  0.59827256  0.78728983  0.81613625     0.11400
H5043       H  0.59989879  0.72979624  0.76128839     0.11100
H5044       H  0.62024786  0.72837063  0.77531227     0.07700
C5045       C  0.76239125  0.77589015  0.50303601    -0.11400
C5046       C  0.75541739  0.75973463  0.51252020     0.05700
C5047       C  0.75899675  0.74657608  0.54116688    -0.10200
C5048       C  0.76945356  0.74920386  0.55904472    -0.11900
C5049       C  0.77650881  0.76517003  0.54893320    -0.01600
C5050       C  0.77275788  0.77861562  0.52107758    -0.10800
C5051       C  0.74454015  0.75655134  0.49222345     0.05700
H5052       H  0.75373314  0.73416987  0.54964503     0.07600
H5053       H  0.77209367  0.73856308  0.58029416     0.11100
H5054       H  0.77803782  0.79089651  0.51203933     0.11400
H5055       H  0.75999822  0.78613778  0.48078258     0.07700
C5056       C  0.73765989  0.77277074  0.48238226    -0.11500
C5057       C  0.72724488  0.76972381  0.46464489    -0.10700
C5058       C  0.72343676  0.75036802  0.45629692    -0.01700
C5059       C  0.73052323  0.73420907  0.46481469    -0.11800
C5060       C  0.74092881  0.73726478  0.48256578    -0.10200
H5061       H  0.74013857  0.78782141  0.48960090     0.07700
H5062       H  0.72198640  0.78251448  0.45886298     0.11400
H5063       H  0.72787679  0.71908329  0.45893483     0.11100
H5064       H  0.74612093  0.72447693  0.48897878     0.07700
C5065       C  0.68412457  0.89906532  0.47745877    -0.11400
C5066       C  0.68986214  0.89164491  0.44574046     0.05700
C5067       C  0.69466792  0.90518871  0.41985411    -0.10200
C5068       C  0.69378261  0.92577537  0.42579616    -0.11900
C5069       C  0.68793623  0.93314527  0.45745081    -0.01600
C5070       C  0.68313042  0.91951788  0.48315268    -0.10800
C5071       C  0.69017858  0.86985932  0.43880574     0.05700
H5072       H  0.69915373  0.89983033  0.39513663     0.07600
H5073       H  0.69761824  0.93588287  0.40563765     0.11100
H5074       H  0.67860789  0.92464213  0.50797920     0.11400
H5075       H  0.68017393  0.88902269  0.49749530     0.07700
C5076       C  0.69237150  0.85636515  0.46848352    -0.11500
C5077       C  0.69171391  0.83576419  0.46227793    -0.10700
C5078       C  0.68861569  0.82839395  0.42650561    -0.01700
C5079       C  0.68666169  0.84190933  0.39679164    -0.11800
C5080       C  0.68751249  0.86237141  0.40278468    -0.10200
H5081       H  0.69450949  0.86177871  0.49652499     0.07700
H5082       H  0.69330310  0.82566016  0.48557832     0.11400
H5083       H  0.68439032  0.83663284  0.36876124     0.11100
H5084       H  0.68567999  0.87236991  0.37952033     0.07700
C5085       C  0.69491745  0.77376631  0.68356829    -0.11400
C5086       C  0.69048974  0.75637389  0.66708435     0.05700
C5087       C  0.68741723  0.74045475  0.69085057    -0.10200
C5088       C  0.68871685  0.74185325  0.73005965    -0.11900
C5089       C  0.69294684  0.75933923  0.74662643    -0.01600
C5090       C  0.69609075  0.77526551  0.72294834    -0.10800
C5091       C  0.68935332  0.75443851  0.62526971     0.05700
H5092       H  0.68376542  0.72698797  0.67922384     0.07600
H5093       H  0.68596991  0.72948970  0.74748451     0.11100
H5094       H  0.69929947  0.78901285  0.73488610     0.11400
H5095       H  0.69752939  0.78617572  0.66605531     0.07700
C5096       C  0.68610503  0.77063157  0.60242989    -0.11500
C5097       C  0.68536370  0.76853304  0.56291872    -0.10700
C5098       C  0.68779869  0.75017174  0.54562346    -0.01700
C5099       C  0.69082838  0.73398976  0.56871051    -0.11800
C5100       C  0.69166393  0.73612947  0.60783217    -0.10200
H5101       H  0.68413506  0.78489393  0.61506836     0.07700
H5102       H  0.68305919  0.78131604  0.54594862     0.11400
H5103       H  0.69288719  0.71965443  0.55652843     0.11100
H5104       H  0.69442056  0.72346489  0.62433344     0.07700
C5105       C  0.68865385  0.73717267  0.19041130    -0.11400
C5106       C  0.69053458  0.75389152  0.16711186     0.05700
C5107       C  0.69334329  0.77208795  0.18437511    -0.10200
C5108       C  0.69394078  0.77367827  0.22379860    -0.11900
C5109       C  0.69182888  0.75707836  0.24708057    -0.01600
C5110       C  0.68936085  0.73872139  0.22990564    -0.10800
C5111       C  0.68977494  0.75229231  0.12502263     0.05700
H5112       H  0.69512420  0.78515658  0.16745681     0.07600
H5113       H  0.69587594  0.78807400  0.23604202     0.11100
H5114       H  0.68754415  0.72571165  0.24698266     0.11400
H5115       H  0.68631958  0.72295479  0.17825266     0.07700
C5116       C  0.69322129  0.73479651  0.10668265    -0.11500
C5117       C  0.69291966  0.73333514  0.06728844    -0.10700
C5118       C  0.68929491  0.74941318  0.04485013    -0.01700
C5119       C  0.68569119  0.76688615  0.06302849    -0.11800
C5120       C  0.68586706  0.76826752  0.10271375    -0.10200
H5121       H  0.69648302  0.72232723  0.12264871     0.07700
H5122       H  0.69583637  0.71964686  0.05442195     0.11400
H5123       H  0.68283768  0.77952904  0.04663928     0.11100
H5124       H  0.68293902  0.78186352  0.11586993     0.07700
C5125       C  0.63693623  0.74017441  0.33069436    -0.11400
C5126       C  0.63093689  0.75740997  0.32055539     0.05700
C5127       C  0.63672871  0.77564022  0.31903972    -0.10200
C5128       C  0.64812786  0.77679449  0.32801237    -0.11900
C5129       C  0.65417430  0.75971459  0.33855157    -0.01600
C5130       C  0.64846010  0.74132294  0.33972966    -0.10800
C5131       C  0.61864007  0.75696562  0.31226611     0.05700
H5132       H  0.63244353  0.78913142  0.31055637     0.07600
H5133       H  0.65221162  0.79120104  0.32643150     0.11100
H5134       H  0.65289033  0.72785223  0.34743873     0.11400
H5135       H  0.63268674  0.72591938  0.33222534     0.07700
C5136       C  0.61370524  0.74193156  0.28985401    -0.11500
C5137       C  0.60223849  0.74289860  0.27993357    -0.10700
C5138       C  0.59556193  0.75897011  0.29213579    -0.01700
C5139       C  0.60048943  0.77356076  0.31546880    -0.11800
C5140       C  0.61180701  0.77250381  0.32554257    -0.10200
H5141       H  0.61876857  0.72978005  0.27914555     0.07700
H5142       H  0.59866372  0.73132455  0.26221002     0.11400
H5143       H  0.59557869  0.78591081  0.32618384     0.11100
H5144       H  0.61524689  0.78402816  0.34368972     0.07700
C5145       C  0.51355236  0.48511510  0.98622123    -0.11400
C5146       C  0.50517671  0.49988849  0.98537185     0.05700
C5147       C  0.50741221  0.51757610  0.96530618    -0.10200
C5148       C  0.51793327  0.52088065  0.94842077    -0.11900
C5149       C  0.52647655  0.50649432  0.95077370    -0.01600
C5150       C  0.52404667  0.48834886  0.96904347    -0.10800
C5151       C  0.49426878  0.49716717  0.00598410     0.05700
H5152       H  0.50106611  0.52905919  0.96309182     0.07600
H5153       H  0.51948058  0.53497096  0.93445074     0.11100
H5154       H  0.53044883  0.47698057  0.97174570     0.11400
H5155       H  0.51218609  0.47135649  0.00151440     0.07700
C5156       C  0.48889514  0.47849537  0.00737847    -0.11500
C5157       C  0.47837156  0.47632826  0.02494447    -0.10700
C5158       C  0.47293576  0.49276769  0.04163964    -0.01700
C5159       C  0.47853522  0.51122449  0.04170113    -0.11800
C5160       C  0.48905280  0.51338261  0.02415664    -0.10200
H5161       H  0.49261217  0.46567634  0.99365561     0.07700
H5162       H  0.47431861  0.46187452  0.02424390     0.11400
H5163       H  0.47462369  0.52421821  0.05417931     0.11100
H5164       H  0.49305948  0.52787224  0.02455245     0.07700
C5165       C  0.56696173  0.36213459  0.97831044    -0.11400
C5166       C  0.56295354  0.36978108  0.94395500     0.05700
C5167       C  0.55931540  0.35655780  0.91547057    -0.10200
C5168       C  0.55971780  0.33596238  0.92129556    -0.11900
C5169       C  0.56397544  0.32832977  0.95541441    -0.01600
C5170       C  0.56754156  0.34163834  0.98388470    -0.10800
C5171       C  0.56318729  0.39147106  0.93719123     0.05700
H5172       H  0.55616346  0.36219379  0.88873577     0.07600
H5173       H  0.55687725  0.32604494  0.89900840     0.11100
H5174       H  0.57076862  0.33620473  0.01067531     0.11400
H5175       H  0.56991804  0.37202320  0.00048780     0.07700
C5176       C  0.55888081  0.40489909  0.96415436    -0.11500
C5177       C  0.55940568  0.42544988  0.95767396    -0.10700
C5178       C  0.56443876  0.43282153  0.92446247    -0.01700
C5179       C  0.56883822  0.41929196  0.89785024    -0.11800
C5180       C  0.56815718  0.39886754  0.90404744    -0.10200
H5181       H  0.55501414  0.39946121  0.98998631     0.07700
H5182       H  0.55591945  0.43552785  0.97856922     0.11400
H5183       H  0.57271999  0.42446962  0.87184990     0.11100
H5184       H  0.57167909  0.38881931  0.88315338     0.07700
C5185       C  0.55674854  0.61652443  0.85550766    -0.11400
C5186       C  0.56198393  0.61986928  0.82042790     0.05700
C5187       C  0.56653644  0.60368701  0.80044798    -0.10200
C5188       C  0.56590244  0.58444190  0.81542500    -0.11900
C5189       C  0.56050345  0.58100226  0.85032576    -0.01600
C5190       C  0.55593250  0.59726387  0.87018085    -0.10800
C5191       C  0.56224698  0.64009471  0.80400211     0.05700
H5192       H  0.57061959  0.60598245  0.77331409     0.07600
H5193       H  0.56952355  0.57224118  0.79949767     0.11100
H5194       H  0.55177610  0.59512900  0.89722803     0.11400
H5195       H  0.55308959  0.62878465  0.87117903     0.07700
C5196       C  0.55784775  0.64337697  0.76766414    -0.11500
C5197       C  0.55755828  0.66255187  0.75254445    -0.10700
C5198       C  0.56184220  0.67882593  0.77319396    -0.01700
C5199       C  0.56645362  0.67547617  0.80935063    -0.11800
C5200       C  0.56654191  0.65627412  0.82479449    -0.10200
H5201       H  0.55441447  0.63112993  0.75129309     0.07700
H5202       H  0.55399566  0.66462099  0.72454324     0.11400
H5203       H  0.56980007  0.68772041  0.82591576     0.11100
H5204       H  0.56999324  0.65401059  0.85289968     0.07700
C5205       C  0.50656004  0.51506108  0.46349761    -0.11400
C5206       C  0.50489720  0.49857500  0.48749070     0.05700
C5207       C  0.51366665  0.48471043  0.49143077    -0.10200
C5208       C  0.52399573  0.48772920  0.47318382    -0.11900
C5209       C  0.52584590  0.50478457  0.45085961    -0.01600
C5210       C  0.51693359  0.51820250  0.44560191    -0.10800
C5211       C  0.49412803  0.49612557  0.50872821     0.05700
H5212       H  0.51272011  0.47193018  0.50984588     0.07600
H5213       H  0.53073766  0.47723109  0.47828676     0.11100
H5214       H  0.51808287  0.53144464  0.42853068     0.11400
H5215       H  0.49988113  0.52574439  0.45898554     0.07700
C5216       C  0.48852104  0.51281164  0.52364194    -0.11500
C5217       C  0.47800317  0.51080433  0.54110723    -0.10700
C5218       C  0.47281966  0.49204114  0.54413279    -0.01700
C5219       C  0.47870337  0.47520651  0.53108284    -0.11800
C5220       C  0.48923237  0.47722394  0.51361564    -0.10200
H5221       H  0.49219114  0.52752767  0.52130687     0.07700
H5222       H  0.47374054  0.52409142  0.55085192     0.11400
H5223       H  0.47497811  0.46051136  0.53297016     0.11100
H5224       H  0.49330234  0.46405116  0.50249919     0.07700
C5225       C  0.56621940  0.39803091  0.39878603    -0.11400
C5226       C  0.56157385  0.39025765  0.43222800     0.05700
C5227       C  0.55755572  0.40354484  0.46003863    -0.10200
C5228       C  0.55832239  0.42417394  0.45467322    -0.11900
C5229       C  0.56325520  0.43188829  0.42160079    -0.01600
C5230       C  0.56709684  0.41856772  0.39361883    -0.10800
C5231       C  0.56164083  0.36842947  0.43903085     0.05700
H5232       H  0.55383622  0.39795857  0.48599275     0.07600
H5233       H  0.55518670  0.43405519  0.47652088     0.11100
H5234       H  0.57080582  0.42401751  0.36753486     0.11400
H5235       H  0.56949163  0.38822181  0.37704818     0.07700
C5236       C  0.55889406  0.35478305  0.41004403    -0.11500
C5237       C  0.55957635  0.33420276  0.41646272    -0.10700
C5238       C  0.56321761  0.32697891  0.45174276    -0.01700
C5239       C  0.56588735  0.34066329  0.48061028    -0.11800
C5240       C  0.56505364  0.36108526  0.47441117    -0.10200
H5241       H  0.55619155  0.36004127  0.38248974     0.07700
H5242       H  0.55743601  0.32398976  0.39378097     0.11400
H5243       H  0.56861709  0.33557099  0.50826100     0.11100
H5244       H  0.56737778  0.37116598  0.49710395     0.07700
C5245       C  0.55663616  0.52559071  0.60438762    -0.11400
C5246       C  0.55992991  0.50799028  0.62252044     0.05700
C5247       C  0.56370956  0.49192012  0.60028344    -0.10200
C5248       C  0.56406080  0.49340315  0.56062595    -0.11900
C5249       C  0.56059788  0.51097221  0.54248844    -0.01600
C5250       C  0.55695469  0.52706486  0.56497467    -0.10800
C5251       C  0.55922221  0.50644772  0.66446207     0.05700
H5252       H  0.56641527  0.47822445  0.61359174     0.07600
H5253       H  0.56688663  0.48073404  0.54421377     0.11100
H5254       H  0.55416227  0.54083095  0.55214527     0.11400
H5255       H  0.55355257  0.53811983  0.62067366     0.07700
C5256       C  0.56265462  0.52239474  0.68764831    -0.11500
C5257       C  0.56201814  0.52093751  0.72715610    -0.10700
C5258       C  0.55796444  0.50346671  0.74435350    -0.01700
C5259       C  0.55431733  0.48768565  0.72109625    -0.11800
C5260       C  0.55493361  0.48916946  0.68160905    -0.10200
H5261       H  0.56609146  0.53583784  0.67522955     0.07700
H5262       H  0.56508055  0.53322555  0.74422146     0.11400
H5263       H  0.55116276  0.47400906  0.73343289     0.11100
H5264       H  0.55203805  0.47679549  0.66445287     0.07700
C5265       C  0.55937003  0.52624071  0.10461349    -0.11400
C5266       C  0.56125815  0.50790016  0.12250353     0.05700
C5267       C  0.56392213  0.49125101  0.09988454    -0.10200
C5268       C  0.56433877  0.49284509  0.06025555    -0.11900
C5269       C  0.56213076  0.51113643  0.04250274    -0.01600
C5270       C  0.55984849  0.52785200  0.06527201    -0.10800
C5271       C  0.56015293  0.50622804  0.16445461     0.05700
H5272       H  0.56563492  0.47695983  0.11276958     0.07600
H5273       H  0.56612777  0.47969370  0.04355192     0.11100
H5274       H  0.55813782  0.54222191  0.05267293     0.11400
H5275       H  0.55714511  0.53931896  0.12088959     0.07700
C5276       C  0.56345880  0.52204267  0.18823767    -0.11500
C5277       C  0.56232761  0.52059325  0.22757810    -0.10700
C5278       C  0.55801796  0.50317960  0.24418933    -0.01700
C5279       C  0.55454822  0.48747719  0.22046687    -0.11800
C5280       C  0.55555139  0.48902228  0.18107621    -0.10200
H5281       H  0.56720390  0.53540398  0.17656554     0.07700
H5282       H  0.56527421  0.53281496  0.24503974     0.11400
H5283       H  0.55121948  0.47382329  0.23237630     0.11100
H5284       H  0.55268710  0.47673317  0.16366521     0.07700
C5285       C  0.56870573  0.65340586  0.31449321    -0.11400
C5286       C  0.55963024  0.64039520  0.30757404     0.05700
C5287       C  0.55050163  0.64714236  0.28584322    -0.10200
C5288       C  0.55047216  0.66637297  0.27095913    -0.11900
C5289       C  0.55951155  0.67945935  0.27781104    -0.01600
C5290       C  0.56860432  0.67284320  0.30000688    -0.10800
C5291       C  0.55954464  0.61982923  0.32289472     0.05700
H5292       H  0.54344496  0.63738529  0.27980361     0.07600
H5293       H  0.54333732  0.67098906  0.25398337     0.11100
H5294       H  0.57571056  0.68255792  0.30558753     0.11400
H5295       H  0.57581304  0.64858940  0.33139128     0.07700
C5296       C  0.56899440  0.60740705  0.31915638    -0.11500
C5297       C  0.56864511  0.58774275  0.33235925    -0.10700
C5298       C  0.55891146  0.58029411  0.35016489    -0.01700
C5299       C  0.54952363  0.59282603  0.35420786    -0.11800
C5300       C  0.54980895  0.61230455  0.34047970    -0.10200
H5301       H  0.57657373  0.61281282  0.30545389     0.07700
H5302       H  0.57603420  0.57846550  0.32916539     0.11400
H5303       H  0.54190852  0.58753280  0.36785426     0.11100
H5304       H  0.54243452  0.62159432  0.34395303     0.07700
C5305       C  0.74303619  0.52061803  0.65513197    -0.11400
C5306       C  0.74514987  0.50274183  0.63557842     0.05700
C5307       C  0.73688692  0.48771216  0.63635121    -0.10200
C5308       C  0.72661473  0.49077392  0.65491946    -0.11900
C5309       C  0.72430083  0.50900108  0.67299164    -0.01600
C5310       C  0.73272396  0.52374651  0.67346034    -0.10800
C5311       C  0.75584325  0.49993944  0.61401244     0.05700
H5312       H  0.73817133  0.47383809  0.62134397     0.07600
H5313       H  0.72026487  0.47919073  0.65343311     0.11100
H5314       H  0.73122365  0.53795532  0.68704670     0.11400
H5315       H  0.74931402  0.53233215  0.65587884     0.07700
C5316       C  0.76071298  0.51582709  0.59376578    -0.11500
C5317       C  0.77103471  0.51350161  0.57506540    -0.10700
C5318       C  0.77675145  0.49521273  0.57611366    -0.01700
C5319       C  0.77165341  0.47910245  0.59508990    -0.11800
C5320       C  0.76134250  0.48143778  0.61378479    -0.10200
H5321       H  0.75658587  0.53016342  0.59263542     0.07700
H5322       H  0.77471073  0.52624884  0.56088293     0.11400
H5323       H  0.77582433  0.46481472  0.59672140     0.11100
H5324       H  0.75788568  0.46891141  0.62922657     0.07700
C5325       C  0.69646283  0.40570766  0.67157820    -0.11400
C5326       C  0.69064952  0.39236241  0.69537536     0.05700
C5327       C  0.68347479  0.39998673  0.72338041    -0.10200
C5328       C  0.68204099  0.42049370  0.72736087    -0.11900
C5329       C  0.68784094  0.43393369  0.70367355    -0.01600
C5330       C  0.69513339  0.42632112  0.67585245    -0.10800
C5331       C  0.69130356  0.37055236  0.68923065     0.05700
H5332       H  0.67875153  0.39004194  0.74163136     0.07600
H5333       H  0.67639422  0.42581074  0.74924992     0.11100
H5334       H  0.69980313  0.43626663  0.65746357     0.11400
H5335       H  0.70204481  0.40015627  0.64971097     0.07700
C5336       C  0.68959378  0.36284221  0.65274808    -0.11500
C5337       C  0.68889270  0.34235189  0.64700123    -0.10700
C5338       C  0.69009365  0.32901936  0.67744868    -0.01700
C5339       C  0.69231728  0.33659850  0.71380695    -0.11800
C5340       C  0.69276670  0.35726485  0.71974655    -0.10200
H5341       H  0.68833738  0.37270834  0.62884369     0.07700
H5342       H  0.68727196  0.33689328  0.61858597     0.11400
H5343       H  0.69327596  0.32662167  0.73769305     0.11100
H5344       H  0.69411964  0.36289823  0.74818135     0.07700
C5345       C  0.69983237  0.61534393  0.78141795    -0.11400
C5346       C  0.69076136  0.62202307  0.80341717     0.05700
C5347       C  0.68176938  0.60900557  0.81102643    -0.10200
C5348       C  0.68191487  0.58946608  0.79707660    -0.11900
C5349       C  0.69096247  0.58279491  0.77468999    -0.01600
C5350       C  0.69988775  0.59600874  0.76689898    -0.10800
C5351       C  0.69091955  0.64239182  0.81920415     0.05700
H5352       H  0.67473162  0.61388869  0.82821030     0.07600
H5353       H  0.67490196  0.57967298  0.80340413     0.11100
H5354       H  0.70698156  0.59136962  0.74973729     0.11400
H5355       H  0.70684130  0.62518423  0.77523814     0.07700
C5356       C  0.69981148  0.64835718  0.84280843    -0.11500
C5357       C  0.70007497  0.66754884  0.85796293    -0.10700
C5358       C  0.69154608  0.68131887  0.84926498    -0.01700
C5359       C  0.68272280  0.67541147  0.82507408    -0.11800
C5360       C  0.68235869  0.65601724  0.81045626    -0.10200
H5361       H  0.70648633  0.63803873  0.84989127     0.07700
H5362       H  0.70699266  0.67160723  0.87647976     0.11400
H5363       H  0.67602093  0.68566016  0.81796689     0.11100
H5364       H  0.67546929  0.65168786  0.79203625     0.07700
C5365       C  0.63677269  0.52166561  0.79193498    -0.11400
C5366       C  0.63121219  0.50501067  0.80739876     0.05700
C5367       C  0.63747861  0.48779790  0.81497983    -0.10200
C5368       C  0.64889225  0.48690183  0.80631643    -0.11900
C5369       C  0.65449179  0.50326073  0.78999231    -0.01600
C5370       C  0.64833253  0.52079100  0.78322667    -0.10800
C5371       C  0.61886486  0.50481469  0.81458169     0.05700
H5372       H  0.63352632  0.47487742  0.82769647     0.07600
H5373       H  0.65332201  0.47321802  0.81252098     0.11100
H5374       H  0.65241246  0.53372449  0.77104918     0.11400
H5375       H  0.63213865  0.53514009  0.78577990     0.07700
C5376       C  0.61332041  0.52087123  0.83208103    -0.11500
C5377       C  0.60179643  0.51953991  0.84102811    -0.10700
C5378       C  0.59564868  0.50214287  0.83251287    -0.01700
C5379       C  0.60121308  0.48639637  0.81415698    -0.11800
C5380       C  0.61260523  0.48775104  0.80522446    -0.10200
H5381       H  0.61794869  0.53419468  0.83970268     0.07700
H5382       H  0.59774255  0.53200021  0.85488505     0.11400
H5383       H  0.59677446  0.47285933  0.80660870     0.11100
H5384       H  0.61655351  0.47529564  0.79098667     0.07700
C5385       C  0.73900992  0.49104151  0.15348768    -0.11400
C5386       C  0.74475636  0.50722885  0.13687805     0.05700
C5387       C  0.73994906  0.52627622  0.14002746    -0.10200
C5388       C  0.72960128  0.52899485  0.15803441    -0.11900
C5389       C  0.72357174  0.51271014  0.17278993    -0.01600
C5390       C  0.72850262  0.49372508  0.17097114    -0.10800
C5391       C  0.75555951  0.50440118  0.11567646     0.05700
H5392       H  0.74391304  0.53912159  0.12717871     0.07600
H5393       H  0.72605771  0.54382779  0.15852040     0.11100
H5394       H  0.72409788  0.48084416  0.18203830     0.11400
H5395       H  0.74253777  0.47621680  0.15260325     0.07700
C5396       C  0.76372334  0.51963632  0.11486532    -0.11500
C5397       C  0.77376242  0.51725789  0.09478540    -0.10700
C5398       C  0.77610993  0.49937390  0.07578430    -0.01700
C5399       C  0.76801921  0.48408972  0.07632120    -0.11800
C5400       C  0.75778904  0.48667463  0.09560276    -0.10200
H5401       H  0.76255030  0.53329346  0.13063097     0.07700
H5402       H  0.77996655  0.52910641  0.09581795     0.11400
H5403       H  0.76965823  0.47007985  0.06217051     0.11100
H5404       H  0.75165434  0.47474288  0.09475243     0.07700
C5405       C  0.69461234  0.40476876  0.16087486    -0.11400
C5406       C  0.69202333  0.39133755  0.19033091     0.05700
C5407       C  0.68855309  0.39888190  0.22549737    -0.10200
C5408       C  0.68731706  0.41930996  0.23081232    -0.11900
C5409       C  0.68965352  0.43275441  0.20126957    -0.01600
C5410       C  0.69354934  0.42535966  0.16643197    -0.10800
C5411       C  0.69199878  0.36951846  0.18384291     0.05700
H5412       H  0.68637376  0.38893118  0.24852657     0.07600
H5413       H  0.68443007  0.42460645  0.25816268     0.11100
H5414       H  0.69544899  0.43541539  0.14329470     0.11400
H5415       H  0.69735294  0.39931155  0.13348155     0.07700
C5416       C  0.68692207  0.36175423  0.15112342    -0.11500
C5417       C  0.68580800  0.34126158  0.14633915    -0.10700
C5418       C  0.68983315  0.32795924  0.17398647    -0.01700
C5419       C  0.69521354  0.33563034  0.20631913    -0.11800
C5420       C  0.69620479  0.35626887  0.21135187    -0.10200
H5421       H  0.68346657  0.37156018  0.12973643     0.07700
H5422       H  0.68172883  0.33583531  0.12084853     0.11400
H5423       H  0.69846217  0.32572932  0.22790947     0.11100
H5424       H  0.70019976  0.36190019  0.23682285     0.07700
C5425       C  0.68467381  0.49341866  0.02481399    -0.11400
C5426       C  0.68790994  0.50987925  0.00255866     0.05700
C5427       C  0.69064500  0.52781276  0.02072943    -0.10200
C5428       C  0.69034216  0.52925090  0.06009362    -0.11900
C5429       C  0.68736689  0.51274726  0.08256597    -0.01600
C5430       C  0.68444242  0.49481579  0.06448842    -0.10800
C5431       C  0.68886894  0.50835736  0.96065459     0.05700
H5432       H  0.69337288  0.54064785  0.00457415     0.07600
H5433       H  0.69277385  0.54326994  0.07290839     0.11100
H5434       H  0.68210922  0.48184461  0.08094831     0.11400
H5435       H  0.68237220  0.47944566  0.01156278     0.07700
C5436       C  0.69332004  0.49115745  0.94379514    -0.11500
C5437       C  0.69443545  0.48985930  0.90445634    -0.10700
C5438       C  0.69116269  0.50575997  0.88100568    -0.01700
C5439       C  0.68690661  0.52312574  0.89787048    -0.11800
C5440       C  0.68572819  0.52437519  0.93725132    -0.10200
H5441       H  0.69602579  0.47872726  0.96103126     0.07700
H5442       H  0.69771052  0.47622904  0.89236181     0.11400
H5443       H  0.68409895  0.53547417  0.88058704     0.11100
H5444       H  0.68213980  0.53775493  0.94932931     0.07700
C5445       C  0.69439642  0.48900490  0.44321155    -0.11400
C5446       C  0.69092708  0.50678724  0.46059357     0.05700
C5447       C  0.68787937  0.52297475  0.43746676    -0.10200
C5448       C  0.68810854  0.52131490  0.39799612    -0.11900
C5449       C  0.69123898  0.50334122  0.38071084    -0.01600
C5450       C  0.69449447  0.48726802  0.40373224    -0.10800
C5451       C  0.69044888  0.50851570  0.50261330     0.05700
H5452       H  0.68499033  0.53680219  0.44982283     0.07600
H5453       H  0.68541265  0.53387605  0.38106919     0.11100
H5454       H  0.69699307  0.47322546  0.39123955     0.11400
H5455       H  0.69703127  0.47639829  0.46009373     0.07700
C5456       C  0.68710763  0.49232388  0.52540253    -0.11500
C5457       C  0.68667559  0.49417780  0.56496441    -0.10700
C5458       C  0.68951285  0.51229783  0.58248590    -0.01700
C5459       C  0.69276681  0.52845976  0.55956237    -0.11800
C5460       C  0.69328600  0.52656131  0.52028053    -0.10200
H5461       H  0.68472018  0.47826521  0.51267984     0.07700
H5462       H  0.68420568  0.48141159  0.58177644     0.11400
H5463       H  0.69512270  0.54262250  0.57195448     0.11100
H5464       H  0.69611802  0.53921049  0.50381001     0.07700
C5465       C  0.67942085  0.60821121  0.30691523    -0.11400
C5466       C  0.68931777  0.61977275  0.30722127     0.05700
C5467       C  0.69931220  0.61151183  0.29290103    -0.10200
C5468       C  0.69939072  0.59224542  0.27801419    -0.11900
C5469       C  0.68953430  0.58063302  0.27784331    -0.01600
C5470       C  0.67955914  0.58870029  0.29275312    -0.10800
C5471       C  0.68935639  0.64030568  0.32282912     0.05700
H5472       H  0.70704175  0.62011941  0.29262995     0.07600
H5473       H  0.70719391  0.58637747  0.26670695     0.11100
H5474       H  0.67183068  0.58008852  0.29263955     0.11400
H5475       H  0.67162577  0.61419877  0.31803290     0.07700
C5476       C  0.68109360  0.65418898  0.31220379    -0.11500
C5477       C  0.68137242  0.67366509  0.32656424    -0.10700
C5478       C  0.68982273  0.67950457  0.35227914    -0.01700
C5479       C  0.69804299  0.66551876  0.36288819    -0.11800
C5480       C  0.69784718  0.64622015  0.34818085    -0.10200
H5481       H  0.67451082  0.65003184  0.29242709     0.07700
H5482       H  0.67490463  0.68405898  0.31793483     0.11400
H5483       H  0.70467156  0.66947670  0.38263823     0.11100
H5484       H  0.70427312  0.63579027  0.35703430     0.07700
C5485       C  0.63565738  0.48484574  0.30167145    -0.11400
C5486       C  0.63030085  0.50344428  0.30297090     0.05700
C5487       C  0.63670842  0.52069068  0.29614315    -0.10200
C5488       C  0.64824038  0.51925987  0.28767761    -0.11900
C5489       C  0.65357480  0.50056459  0.28633690    -0.01600
C5490       C  0.64711520  0.48341659  0.29351415    -0.10800
C5491       C  0.61801368  0.50435387  0.31073913     0.05700
H5492       H  0.63276800  0.53520340  0.29682674     0.07600
H5493       H  0.65299270  0.53277493  0.28258060     0.11100
H5494       H  0.65091665  0.46878545  0.29299387     0.11400
H5495       H  0.63097341  0.47131554  0.30735701     0.07700
C5496       C  0.61080548  0.49074502  0.29272600    -0.11500
C5497       C  0.59945331  0.48971988  0.30241734    -0.10700
C5498       C  0.59493213  0.50234406  0.33032901    -0.01700
C5499       C  0.60198180  0.51673020  0.34712786    -0.11800
C5500       C  0.61346454  0.51770074  0.33743476    -0.10200
H5501       H  0.61401104  0.48061150  0.27140801     0.07700
H5502       H  0.59421482  0.47882035  0.28813539     0.11400
H5503       H  0.59870770  0.52677927  0.36845530     0.11100
H5504       H  0.61885557  0.52835206  0.35173372     0.07700
loop_ 
_geom_bond_atom_site_label_1 
_geom_bond_atom_site_label_2 
_geom_bond_distance 
_geom_bond_site_symmetry_2 
_ccdc_geom_bond_type 
O1           Ni7   1.932       .  S
O1           C22   1.272       .  A
O2          Ni25   1.928       .  S
O2           C11   1.271       .  A
O3           Ni7   1.896       .  S
O3          Ni25   1.909       .  S
O3          Ni19   1.909       .  S
O3           H26   0.966       .  S
C4           O21   1.280       .  A
C4           O13   1.276       .  A
C4         C5449   1.478       .  S
O5          Ni24   1.907       .  S
O5           C11   1.266       .  A
O6          Ni24   1.907       .  S
O6            C8   1.269       .  A
Ni7          O10   1.917       .  S
Ni7          O12   1.902       .  S
C8           O18   1.271       .  A
C8         C5489   1.485       .  S
O9          Ni25   1.926       .  S
O9           C15   1.281       .  A
O10          C15   1.278       .  A
C11        C5409   1.478       .  S
O12          C14   1.269       .  A
O13         Ni24   1.913       .  S
C14          O20   1.273       .  A
C14        C5389   1.486       .  S
C15        C5429   1.483       .  S
H16          O17   0.966       .  S
O17         Ni25   1.923       .  S
O17         Ni19   1.901       .  S
O17         Ni24   1.900       .  S
O18         Ni19   1.928       .  S
Ni19         O23   1.913       .  S
Ni19         O21   1.925       .  S
O20         Ni25   1.933       .  S
C22          O23   1.268       .  A
C22        C5469   1.478       .  S
O27         Ni33   1.933       .  S
O27          C48   1.274       .  A
O28         Ni51   1.929       .  S
O28          C37   1.271       .  A
O29         Ni33   1.897       .  S
O29         Ni51   1.909       .  S
O29         Ni45   1.910       .  S
O29          H52   0.966       .  S
C30          O47   1.281       .  A
C30          O39   1.276       .  A
C30        C5438   1.479       .  S
O31         Ni50   1.908       .  S
O31          C37   1.265       .  A
O32         Ni50   1.902       .  S
O32          C34   1.269       .  A
Ni33         O36   1.924       .  S
Ni33         O38   1.910       .  S
C34          O44   1.274       .  A
C34        C5369   1.487       .  S
O35         Ni51   1.920       .  S
O35          C41   1.280       .  A
O36          C41   1.279       .  A
C37        C5329   1.484       .  S
O38          C40   1.269       .  A
O39         Ni50   1.908       .  S
C40          O46   1.272       .  A
C40        C5309   1.486       .  S
C41        C5458   1.482       .  S
H42          O43   0.966       .  S
O43         Ni51   1.920       .  S
O43         Ni45   1.901       .  S
O43         Ni50   1.894       .  S
O44         Ni45   1.935       .  S
Ni45         O49   1.911       .  S
Ni45         O47   1.934       .  S
O46         Ni51   1.928       .  S
C48          O49   1.271       .  A
C48        C5349   1.483       .  S
O53         Ni59   1.936       .  S
O53          C74   1.274       .  A
O54         Ni77   1.928       .  S
O54          C63   1.272       .  A
O55         Ni59   1.897       .  S
O55         Ni77   1.908       .  S
O55         Ni71   1.907       .  S
O55          H78   0.966       .  S
C56          O73   1.281       .  A
C56          O65   1.276       .  A
C56        C5278   1.480       .  S
O57         Ni76   1.908       .  S
O57          C63   1.266       .  A
O58         Ni76   1.907       .  S
O58          C60   1.269       .  A
Ni59         O62   1.928       .  S
Ni59         O64   1.911       .  S
C60          O70   1.273       .  A
C60        C5498   1.483       .  S
O61         Ni77   1.923       .  S
O61          C67   1.282       .  A
O62          C67   1.280       .  A
C63        C5229   1.482       .  S
O64          C66   1.269       .  A
O65         Ni76   1.911       .  S
C66          O72   1.271       .  A
C66        C5209   1.482       .  S
C67        C5249   1.485       .  S
H68          O69   0.966       .  S
O69         Ni77   1.924       .  S
O69         Ni71   1.898       .  S
O69         Ni76   1.894       .  S
O70         Ni71   1.933       .  S
Ni71         O75   1.909       .  S
Ni71         O73   1.933       .  S
O72         Ni77   1.927       .  S
C74          O75   1.270       .  A
C74        C5298   1.481       .  S
O79         Ni85   1.936       .  S
O79         C100   1.276       .  A
O80        Ni103   1.922       .  S
O80          C89   1.270       .  A
O81         Ni85   1.898       .  S
O81        Ni103   1.907       .  S
O81         Ni97   1.910       .  S
O81         H104   0.966       .  S
C82          O99   1.281       .  A
C82          O91   1.276       .  A
C82        C5258   1.482       .  S
O83        Ni102   1.909       .  S
O83          C89   1.266       .  A
O84        Ni102   1.905       .  S
O84          C86   1.269       .  A
Ni85         O88   1.927       .  S
Ni85         O90   1.915       .  S
C86          O96   1.272       .  A
C86        C5378   1.486       .  S
O87        Ni103   1.918       .  S
O87          C93   1.279   1_556  A
O88          C93   1.279   1_556  A
C89        C5178   1.477       .  S
O90          C92   1.271       .  A
O91        Ni102   1.912       .  S
C92          O98   1.273       .  A
C92        C5149   1.489       .  S
C93        C5269   1.483       .  S
H94          O95   0.966       .  S
O95        Ni103   1.921       .  S
O95         Ni97   1.896       .  S
O95        Ni102   1.895       .  S
O96         Ni97   1.932       .  S
Ni97        O101   1.901       .  S
Ni97         O99   1.933       .  S
O98        Ni103   1.932       .  S
C100        O101   1.269       .  A
C100       C5189   1.481       .  S
O105       Ni111   1.932       .  S
O105        C126   1.273       .  A
O106       Ni129   1.928       .  S
O106        C115   1.270       .  A
O107       Ni111   1.901       .  S
O107       Ni129   1.913       .  S
O107       Ni123   1.913       .  S
O107        H130   0.966       .  S
C108        O125   1.281       .  A
C108        O117   1.275       .  A
C108       C5109   1.481       .  S
O109       Ni128   1.907       .  S
O109        C115   1.265       .  A
O110       Ni128   1.903       .  S
O110        C112   1.269       .  A
Ni111       O114   1.921       .  S
Ni111       O116   1.906       .  S
C112        O122   1.272       .  A
C112       C5129   1.486       .  S
O113       Ni129   1.919       .  S
O113        C119   1.278       .  A
O114        C119   1.278       .  A
C115       C5078   1.479       .  S
O116        C118   1.269       .  A
O117       Ni128   1.908       .  S
C118        O124   1.274       .  A
C118       C5058   1.487       .  S
C119       C5098   1.482       .  S
H120        O121   0.966       .  S
O121       Ni129   1.921       .  S
O121       Ni123   1.904       .  S
O121       Ni128   1.900       .  S
O122       Ni123   1.932       .  S
Ni123       O127   1.914       .  S
Ni123       O125   1.931       .  S
O124       Ni129   1.932       .  S
C126        O127   1.270       .  A
C126       C5478   1.485       .  S
O131       Ni137   1.932       .  S
O131        C152   1.273       .  A
O132       Ni155   1.928       .  S
O132        C141   1.272       .  A
O133       Ni137   1.897       .  S
O133       Ni155   1.909       .  S
O133       Ni149   1.911       .  S
O133        H156   0.966       .  S
C134        O151   1.281       .  A
C134        O143   1.276       .  A
C134       C5089   1.478       .  S
O135       Ni154   1.905       .  S
O135        C141   1.265       .  A
O136       Ni154   1.907       .  S
O136        C138   1.269       .  A
Ni137       O140   1.923       .  S
Ni137       O142   1.905       .  S
C138        O148   1.273       .  A
C138       C5029   1.488       .  S
O139       Ni155   1.923       .  S
O139        C145   1.280   1_556  A
O140        C145   1.278   1_556  A
C141       C5018   1.479       .  S
O142        C144   1.269       .  A
O143       Ni154   1.911       .  S
C144        O150   1.275       .  A
C144       C4989   1.488       .  S
C145       C5118   1.485       .  S
H146        O147   0.966       .  S
O147       Ni155   1.923       .  S
O147       Ni149   1.895       .  S
O147       Ni154   1.895       .  S
O148       Ni149   1.933       .  S
Ni149       O153   1.909       .  S
Ni149       O151   1.929       .  S
O150       Ni155   1.938       .  S
C152        O153   1.270       .  A
C152       C5358   1.482       .  S
O157       Ni163   1.932       .  S
O157        C178   1.273       .  A
O158       Ni181   1.935       .  S
O158        C167   1.273       .  A
O159       Ni163   1.899       .  S
O159       Ni181   1.910       .  S
O159       Ni175   1.911       .  S
O159        H182   0.966       .  S
C160        O177   1.281       .  A
C160        O169   1.276       .  A
C160       C4969   1.481       .  S
O161       Ni180   1.908       .  S
O161        C167   1.266       .  A
O162       Ni180   1.906       .  S
O162        C164   1.269       .  A
Ni163       O166   1.923       .  S
Ni163       O168   1.908       .  S
C164        O174   1.272       .  A
C164       C5138   1.486       .  S
O165       Ni181   1.923       .  S
O165        C171   1.281       .  A
O166        C171   1.279       .  A
C167       C4938   1.485       .  S
O168        C170   1.269       .  A
O169       Ni180   1.912       .  S
C170        O176   1.273       .  A
C170       C4918   1.486       .  S
C171       C4949   1.484       .  S
H172        O173   0.966       .  S
O173       Ni181   1.924       .  S
O173       Ni175   1.900       .  S
O173       Ni180   1.896       .  S
O174       Ni175   1.933       .  S
Ni175       O179   1.912       .  S
Ni175       O177   1.932       .  S
O176       Ni181   1.930       .  S
C178        O179   1.270       .  A
C178       C5289   1.482       .  S
O183       Ni189   1.931       .  S
O183        C204   1.274       .  A
O184       Ni207   1.924       .  S
O184        C193   1.270       .  A
O185       Ni189   1.903       .  S
O185       Ni207   1.913       .  S
O185       Ni201   1.915       .  S
O185        H208   0.966       .  S
C186        O203   1.280       .  A
C186        O195   1.276       .  A
C186       C4958   1.481       .  S
O187       Ni206   1.905       .  S
O187        C193   1.265       .  A
O188       Ni206   1.903       .  S
O188        C190   1.269       .  A
Ni189       O192   1.923       .  S
Ni189       O194   1.911       .  S
C190        O200   1.274       .  A
C190       C5038   1.489       .  S
O191       Ni207   1.922       .  S
O191        C197   1.279       .  A
O192        C197   1.277       .  A
C193       C4889   1.478       .  S
O194        C196   1.270       .  A
O195       Ni206   1.911       .  S
C196        O202   1.272       .  A
C196       C4878   1.485       .  S
C197       C4978   1.485       .  S
H198        O199   0.966       .  S
O199       Ni207   1.921       .  S
O199       Ni201   1.896       .  S
O199       Ni206   1.896       .  S
O200       Ni201   1.938       .  S
Ni201       O205   1.905       .  S
Ni201       O203   1.932       .  S
O202       Ni207   1.928       .  S
C204        O205   1.270       .  A
C204       C5198   1.480       .  S
O209       Ni215   1.928       .  S
O209        C230   1.273       .  A
O210       Ni233   1.929       .  S
O210        C219   1.272       .  A
O211       Ni215   1.894       .  S
O211       Ni233   1.908   1_545  S
O211       Ni227   1.909       .  S
O211        H234   0.966       .  S
C212        O229   1.280       .  A
C212        O221   1.276   1_545  A
C212       C4798   1.480       .  S
O213       Ni232   1.909       .  S
O213        C219   1.266       .  A
O214       Ni232   1.902       .  S
O214        C216   1.268       .  A
Ni215       O218   1.919       .  S
Ni215       O220   1.907       .  S
C216        O226   1.273   1_565  A
C216       C4858   1.484   1_565  S
O217       Ni233   1.926       .  S
O217        C223   1.282   1_565  A
O218        C223   1.278       .  A
C219       C5069   1.483       .  S
O220        C222   1.269       .  A
O221       Ni232   1.912       .  S
C222        O228   1.273   1_545  A
C222       C4778   1.487       .  S
C223       C4818   1.484       .  S
H224        O225   0.966       .  S
O225       Ni233   1.922       .  S
O225       Ni227   1.899   1_565  S
O225       Ni232   1.892       .  S
O226       Ni227   1.932       .  S
Ni227       O231   1.912       .  S
Ni227       O229   1.930       .  S
O228       Ni233   1.931       .  S
C230        O231   1.270       .  A
C230       C4829   1.482       .  S
O235       Ni241   1.928       .  S
O235        C256   1.273   1_556  A
O236       Ni259   1.926       .  S
O236        C245   1.271       .  A
O237       Ni241   1.895       .  S
O237       Ni259   1.902   1_545  S
O237       Ni253   1.909   1_556  S
O237        H260   0.966       .  S
C238        O255   1.281       .  A
C238        O247   1.276   1_545  A
C238       C4809   1.482       .  S
O239       Ni258   1.905   1_556  S
O239        C245   1.265       .  A
O240       Ni258   1.905       .  S
O240        C242   1.268       .  A
Ni241       O244   1.921       .  S
Ni241       O246   1.909       .  S
C242        O252   1.272   1_565  A
C242       C4749   1.486   1_565  S
O243       Ni259   1.923   1_545  S
O243        C249   1.282       .  A
O244        C249   1.279       .  A
C245       C5009   1.478       .  S
O246        C248   1.269       .  A
O247       Ni258   1.912       .  S
C248        O254   1.272   1_545  A
C248       C4709   1.486       .  S
C249       C4789   1.483       .  S
H250        O251   0.966       .  S
O251       Ni259   1.925   1_554  S
O251       Ni253   1.895   1_565  S
O251       Ni258   1.894       .  S
O252       Ni253   1.933       .  S
Ni253       O257   1.904       .  S
Ni253       O255   1.931       .  S
O254       Ni259   1.928       .  S
C256        O257   1.268       .  A
C256       C4729   1.475       .  S
O261       Ni267   1.939       .  S
O261        C282   1.275       .  A
O262       Ni285   1.938       .  S
O262        C271   1.273       .  A
O263       Ni267   1.897       .  S
O263       Ni285   1.911   1_545  S
O263       Ni279   1.910       .  S
O263        H286   0.966       .  S
C264        O281   1.281   1_565  A
C264        O273   1.275       .  A
C264       C4649   1.479   1_564  S
O265       Ni284   1.902       .  S
O265        C271   1.264       .  A
O266       Ni284   1.903       .  S
O266        C268   1.269       .  A
Ni267       O270   1.924       .  S
Ni267       O272   1.911       .  S
C268        O278   1.273   1_565  A
C268       C4758   1.486   1_565  S
O269       Ni285   1.926       .  S
O269        C275   1.282   1_565  A
O270        C275   1.280       .  A
C271       C4929   1.486       .  S
O272        C274   1.270       .  A
O273       Ni284   1.908       .  S
C274        O280   1.273   1_545  A
C274       C4638   1.489       .  S
C275       C4678   1.486       .  S
H276        O277   0.966       .  S
O277       Ni285   1.926       .  S
O277       Ni279   1.899   1_565  S
O277       Ni284   1.896       .  S
O278       Ni279   1.933       .  S
Ni279       O283   1.914       .  S
Ni279       O281   1.929       .  S
O280       Ni285   1.930       .  S
C282        O283   1.271       .  A
C282       C4698   1.485       .  S
O287       Ni293   1.931       .  S
O287        C308   1.274       .  A
O288       Ni311   1.924       .  S
O288        C297   1.270       .  A
O289       Ni293   1.896       .  S
O289       Ni311   1.905   1_545  S
O289       Ni305   1.910       .  S
O289        H312   0.966       .  S
C290        O307   1.279       .  A
C290        O299   1.276   1_545  A
C290       C4669   1.484       .  S
O291       Ni310   1.907       .  S
O291        C297   1.265       .  A
O292       Ni310   1.902       .  S
O292        C294   1.268       .  A
Ni293       O296   1.916       .  S
Ni293       O298   1.911       .  S
C294        O304   1.272   1_565  A
C294       C4849   1.484       .  S
O295       Ni311   1.923       .  S
O295        C301   1.280   1_565  A
O296        C301   1.277       .  A
C297       C4898   1.475       .  S
O298        C300   1.271       .  A
O299       Ni310   1.914       .  S
C300        O306   1.273   1_545  A
C300       C4589   1.488       .  S
C301       C4658   1.481       .  S
H302        O303   0.966       .  S
O303       Ni311   1.925       .  S
O303       Ni305   1.898   1_565  S
O303       Ni310   1.898       .  S
O304       Ni305   1.931       .  S
Ni305       O309   1.902       .  S
Ni305       O307   1.930       .  S
O306       Ni311   1.930       .  S
C308        O309   1.269       .  A
C308       C4609   1.477       .  S
O313       Ni319   1.928       .  S
O313        C334   1.272       .  A
O314       Ni337   1.928       .  S
O314        C323   1.271       .  A
O315       Ni319   1.899       .  S
O315       Ni337   1.904       .  S
O315       Ni331   1.916       .  S
O315        H338   0.966       .  S
C316        O333   1.282       .  A
C316        O325   1.277       .  A
C316       C4538   1.484   1_554  S
O317       Ni336   1.904       .  S
O317        C323   1.265       .  A
O318       Ni336   1.904       .  S
O318        C320   1.268       .  A
Ni319       O322   1.924       .  S
Ni319       O324   1.908       .  S
C320        O330   1.273       .  A
C320       C4578   1.488       .  S
O321       Ni337   1.921       .  S
O321        C327   1.281       .  A
O322        C327   1.279       .  A
C323       C5418   1.479       .  S
O324        C326   1.269       .  A
O325       Ni336   1.907       .  S
C326        O332   1.271       .  A
C326       C4518   1.482       .  S
C327       C4549   1.477       .  S
H328        O329   0.966       .  S
O329       Ni337   1.920       .  S
O329       Ni331   1.893       .  S
O329       Ni336   1.889       .  S
O330       Ni331   1.935       .  S
Ni331       O335   1.903       .  S
Ni331       O333   1.938       .  S
O332       Ni337   1.921       .  S
C334        O335   1.268       .  A
C334       C4738   1.473       .  S
O339       Ni345   1.933       .  S
O339        C360   1.272       .  A
O340       Ni363   1.931       .  S
O340        C349   1.272       .  A
O341       Ni345   1.902       .  S
O341       Ni363   1.908       .  S
O341       Ni357   1.916       .  S
O341        H364   0.966       .  S
C342        O359   1.282       .  A
C342        O351   1.277       .  A
C342       C4558   1.484       .  S
O343       Ni362   1.907       .  S
O343        C349   1.266       .  A
O344       Ni362   1.903       .  S
O344        C346   1.268       .  A
Ni345       O348   1.923       .  S
Ni345       O350   1.910       .  S
C346        O356   1.272       .  A
C346       C4489   1.488       .  S
O347       Ni363   1.920       .  S
O347        C353   1.280       .  A
O348        C353   1.278       .  A
C349       C5338   1.479       .  S
O350        C352   1.270       .  A
O351       Ni362   1.910       .  S
C352        O358   1.273       .  A
C352       C4469   1.485       .  S
C353       C4529   1.474       .  S
H354        O355   0.966       .  S
O355       Ni363   1.922       .  S
O355       Ni357   1.899       .  S
O355       Ni362   1.896       .  S
O356       Ni357   1.933       .  S
Ni357       O361   1.908       .  S
Ni357       O359   1.934       .  S
O358       Ni363   1.926       .  S
C360        O361   1.268       .  A
C360       C4838   1.474       .  S
O365       Ni371   1.929       .  S
O365        C386   1.274       .  A
O366       Ni389   1.928       .  S
O366        C375   1.271       .  A
O367       Ni371   1.898       .  S
O367       Ni389   1.909       .  S
O367       Ni383   1.913       .  S
O367        H390   0.966       .  S
C368        O385   1.281       .  A
C368        O377   1.275       .  A
C368       C4429   1.479       .  S
O369       Ni388   1.909       .  S
O369        C375   1.266       .  A
O370       Ni388   1.908       .  S
O370        C372   1.270       .  A
Ni371       O374   1.922       .  S
Ni371       O376   1.912       .  S
C372        O382   1.273       .  A
C372       C4498   1.488       .  S
O373       Ni389   1.920       .  S
O373        C379   1.279       .  A
O374        C379   1.278       .  A
C375       C5238   1.480       .  S
O376        C378   1.270       .  A
O377       Ni388   1.912       .  S
C378        O384   1.274       .  A
C378       C4418   1.489       .  S
C379       C4458   1.482       .  S
H380        O381   0.966       .  S
O381       Ni389   1.923       .  S
O381       Ni383   1.898       .  S
O381       Ni388   1.896       .  S
O382       Ni383   1.934       .  S
Ni383       O387   1.908       .  S
Ni383       O385   1.933       .  S
O384       Ni389   1.935       .  S
C386        O387   1.271       .  A
C386       C4618   1.479       .  S
O391       Ni397   1.937       .  S
O391        C412   1.275   1_556  A
O392       Ni415   1.925       .  S
O392        C401   1.271       .  A
O393       Ni397   1.895       .  S
O393       Ni415   1.909       .  S
O393       Ni409   1.911   1_556  S
O393        H416   0.966       .  S
C394        O411   1.281       .  A
C394        O403   1.276       .  A
C394       C4449   1.480       .  S
O395       Ni414   1.905   1_556  S
O395        C401   1.265       .  A
O396       Ni414   1.904       .  S
O396        C398   1.268       .  A
Ni397       O400   1.926       .  S
Ni397       O402   1.910       .  S
C398        O408   1.275       .  A
C398       C4569   1.490       .  S
O399       Ni415   1.922       .  S
O399        C405   1.280       .  A
O400        C405   1.280       .  A
C401       C5169   1.477       .  S
O402        C404   1.269       .  A
O403       Ni414   1.907       .  S
C404        O410   1.274       .  A
C404       C4389   1.489       .  S
C405       C4438   1.484       .  S
H406        O407   0.966       .  S
O407       Ni415   1.922   1_554  S
O407       Ni409   1.898       .  S
O407       Ni414   1.893       .  S
O408       Ni409   1.941       .  S
Ni409       O413   1.913       .  S
Ni409       O411   1.933       .  S
O410       Ni415   1.935       .  S
C412        O413   1.272       .  A
C412       C4689   1.485       .  S
O417       Ni423   1.910       .  S
O417        C438   1.266       .  A
O418       Ni441   1.917       .  S
O418        C427   1.271       .  A
O419       Ni423   1.899       .  S
O419       Ni441   1.905       .  S
O419       Ni435   1.917       .  S
O419        H442   0.966       .  S
C420        O437   1.280       .  A
C420        O429   1.276       .  A
C420       C4329   1.480       .  S
O421       Ni440   1.923       .  S
O421        C427   1.271       .  A
O422       Ni440   1.912       .  S
O422        C424   1.271       .  A
Ni423       O426   1.915       .  S
Ni423       O428   1.898       .  S
C424        O434   1.273       .  A
C424       C4269   1.486       .  S
O425       Ni441   1.926       .  S
O425        C431   1.280       .  A
O426        C431   1.277       .  A
C427       C4349   1.482       .  S
O428        C430   1.266       .  A
O429       Ni440   1.914       .  S
C430        O436   1.272       .  A
C430       C4378   1.480       .  S
C431       C4309   1.483       .  S
H432        O433   0.966       .  S
O433       Ni441   1.920       .  S
O433       Ni435   1.906       .  S
O433       Ni440   1.899       .  S
O434       Ni435   1.925       .  S
Ni435       O439   1.928       .  S
Ni435       O437   1.927       .  S
O436       Ni441   1.931       .  S
C438        O439   1.271       .  A
C438       C4289   1.480       .  S
O443       Ni449   1.913       .  S
O443        C464   1.266       .  A
O444       Ni467   1.914       .  S
O444        C453   1.269       .  A
O445       Ni449   1.900       .  S
O445       Ni467   1.907       .  S
O445       Ni461   1.915       .  S
O445        H468   0.966       .  S
C446        O463   1.279       .  A
C446        O455   1.277       .  A
C446       C4318   1.481       .  S
O447       Ni466   1.927       .  S
O447        C453   1.272       .  A
O448       Ni466   1.909       .  S
O448        C450   1.270       .  A
Ni449       O452   1.917       .  S
Ni449       O454   1.896       .  S
C450        O460   1.274       .  A
C450       C4189   1.486       .  S
O451       Ni467   1.922       .  S
O451        C457   1.279       .  A
O452        C457   1.276       .  A
C453       C4238   1.484       .  S
O454        C456   1.266       .  A
O455       Ni466   1.920       .  S
C456        O462   1.271       .  A
C456       C4249   1.479       .  S
C457       C4338   1.481   1_556  S
H458        O459   0.966       .  S
O459       Ni467   1.919       .  S
O459       Ni461   1.908       .  S
O459       Ni466   1.901       .  S
O460       Ni461   1.926       .  S
Ni461       O465   1.929       .  S
Ni461       O463   1.922       .  S
O462       Ni467   1.933       .  S
C464        O465   1.271       .  A
C464       C4209   1.483       .  S
O469       Ni475   1.905   1_554  S
O469        C490   1.263       .  A
O470       Ni493   1.913       .  S
O470        C479   1.270       .  A
O471       Ni475   1.905       .  S
O471       Ni493   1.907       .  S
O471       Ni487   1.923   1_556  S
O471        H494   0.966       .  S
C472        O489   1.281       .  A
C472        O481   1.278       .  A
C472       C4158   1.483       .  S
O473       Ni492   1.923       .  S
O473        C479   1.271   1_554  A
O474       Ni492   1.912       .  S
O474        C476   1.269       .  A
Ni475       O478   1.912       .  S
Ni475       O480   1.896       .  S
C476        O486   1.271       .  A
C476       C5398   1.479       .  S
O477       Ni493   1.925       .  S
O477        C483   1.279       .  A
O478        C483   1.276       .  A
C479       C4169   1.480       .  S
O480        C482   1.266       .  A
O481       Ni492   1.918       .  S
C482        O488   1.272       .  A
C482       C4258   1.480       .  S
C483       C4138   1.482       .  S
H484        O485   0.966       .  S
O485       Ni493   1.918   1_554  S
O485       Ni487   1.905       .  S
O485       Ni492   1.901       .  S
O486       Ni487   1.919       .  S
Ni487       O491   1.926       .  S
Ni487       O489   1.927       .  S
O488       Ni493   1.933       .  S
C490        O491   1.269       .  A
C490       C4109   1.479       .  S
O495       Ni501   1.914       .  S
O495        C516   1.268       .  A
O496       Ni519   1.913       .  S
O496        C505   1.271       .  A
O497       Ni501   1.900       .  S
O497       Ni519   1.906       .  S
O497       Ni513   1.918       .  S
O497        H520   0.966       .  S
C498        O515   1.282       .  A
C498        O507   1.277       .  A
C498       C4129   1.480       .  S
O499       Ni518   1.919       .  S
O499        C505   1.270       .  A
O500       Ni518   1.912       .  S
O500        C502   1.270       .  A
Ni501       O504   1.923       .  S
Ni501       O506   1.898       .  S
C502        O512   1.274       .  A
C502       C5318   1.487       .  S
O503       Ni519   1.921       .  S
O503        C509   1.278       .  A
O504        C509   1.277       .  A
C505       C4089   1.478       .  S
O506        C508   1.266       .  A
O507       Ni518   1.912       .  S
C508        O514   1.273       .  A
C508       C4369   1.481       .  S
C509       C4149   1.483       .  S
H510        O511   0.966       .  S
O511       Ni519   1.916       .  S
O511       Ni513   1.900       .  S
O511       Ni518   1.895       .  S
O512       Ni513   1.928       .  S
Ni513       O517   1.924       .  S
Ni513       O515   1.931       .  S
O514       Ni519   1.937       .  S
C516        O517   1.272       .  A
C516       C4069   1.478       .  S
O521       Ni527   1.911   1_554  S
O521        C542   1.267       .  A
O522       Ni545   1.910       .  S
O522        C531   1.269       .  A
O523       Ni527   1.901       .  S
O523       Ni545   1.905       .  S
O523       Ni539   1.917   1_556  S
O523        H546   0.966       .  S
C524        O541   1.281       .  A
C524        O533   1.276       .  A
C524       C4029   1.480       .  S
O525       Ni544   1.924       .  S
O525        C531   1.271   1_554  A
O526       Ni544   1.910       .  S
O526        C528   1.270       .  A
Ni527       O530   1.916       .  S
Ni527       O532   1.899       .  S
C528        O538   1.272       .  A
C528       C3969   1.486       .  S
O529       Ni545   1.922       .  S
O529        C535   1.278       .  A
O530        C535   1.276       .  A
C531       C4229   1.480       .  S
O532        C534   1.267       .  A
O533       Ni544   1.913       .  S
C534        O540   1.272       .  A
C534       C4049   1.484       .  S
C535       C4009   1.483       .  S
H536        O537   0.966       .  S
O537       Ni545   1.916   1_554  S
O537       Ni539   1.905       .  S
O537       Ni544   1.899       .  S
O538       Ni539   1.925       .  S
Ni539       O543   1.921       .  S
Ni539       O541   1.929       .  S
O540       Ni545   1.934       .  S
C542        O543   1.270       .  A
C542       C3989   1.476       .  S
O547       Ni553   1.911       .  S
O547        C568   1.267       .  A
O548       Ni571   1.913       .  S
O548        C557   1.270       .  A
O549       Ni553   1.901       .  S
O549       Ni571   1.902       .  S
O549       Ni565   1.917       .  S
O549        H572   0.966       .  S
C550        O567   1.280       .  A
C550        O559   1.277       .  A
C550       C4018   1.478       .  S
O551       Ni570   1.927       .  S
O551        C557   1.272       .  A
O552       Ni570   1.913       .  S
O552        C554   1.271       .  A
Ni553       O556   1.917       .  S
Ni553       O558   1.905       .  S
C554        O564   1.274       .  A
C554       C3909   1.487       .  S
O555       Ni571   1.922       .  S
O555        C561   1.279       .  A
O556        C561   1.277       .  A
C557       C4358   1.483       .  S
O558        C560   1.268       .  A
O559       Ni570   1.917       .  S
C560        O566   1.272       .  A
C560       C3949   1.485       .  S
C561       C4038   1.482       .  S
H562        O563   0.966       .  S
O563       Ni571   1.918       .  S
O563       Ni565   1.905       .  S
O563       Ni570   1.899       .  S
O564       Ni565   1.927       .  S
Ni565       O569   1.926       .  S
Ni565       O567   1.926       .  S
O566       Ni571   1.933       .  S
C568        O569   1.271       .  A
C568       C3929   1.477       .  S
O573       Ni579   1.913       .  S
O573        C594   1.268       .  A
O574       Ni597   1.911       .  S
O574        C583   1.269       .  A
O575       Ni579   1.895       .  S
O575       Ni597   1.904       .  S
O575       Ni591   1.914       .  S
O575        H598   0.966       .  S
C576        O593   1.280       .  A
C576        O585   1.277       .  A
C576       C3889   1.481       .  S
O577       Ni596   1.924       .  S
O577        C583   1.271       .  A
O578       Ni596   1.907       .  S
O578        C580   1.270       .  A
Ni579       O582   1.918       .  S
Ni579       O584   1.900       .  S
C580        O590   1.273       .  A
C580       C4509   1.482       .  S
O581       Ni597   1.923       .  S
O581        C587   1.279       .  A
O582        C587   1.277       .  A
C583       C4098   1.480       .  S
O584        C586   1.267       .  A
O585       Ni596   1.916       .  S
C586        O592   1.272       .  A
C586       C3958   1.481       .  S
C587       C3869   1.484       .  S
H588        O589   0.966       .  S
O589       Ni597   1.918       .  S
O589       Ni591   1.905       .  S
O589       Ni596   1.897       .  S
O590       Ni591   1.925       .  S
Ni591       O595   1.925       .  S
Ni591       O593   1.928       .  S
O592       Ni597   1.936       .  S
C594        O595   1.271       .  A
C594       C3849   1.480       .  S
O599       Ni605   1.909       .  S
O599        C620   1.265       .  A
O600       Ni623   1.915       .  S
O600        C609   1.271       .  A
O601       Ni605   1.893       .  S
O601       Ni623   1.902       .  S
O601       Ni617   1.915       .  S
O601        H624   0.966       .  S
C602        O619   1.281       .  A
C602        O611   1.277       .  A
C602       C3878   1.480       .  S
O603       Ni622   1.924       .  S
O603        C609   1.272       .  A
O604       Ni622   1.912       .  S
O604        C606   1.271       .  A
Ni605       O608   1.913       .  S
Ni605       O610   1.897       .  S
C606        O616   1.273       .  A
C606       C4478   1.484       .  S
O607       Ni623   1.928       .  S
O607        C613   1.282       .  A
O608        C613   1.278       .  A
C609       C4178   1.483       .  S
O610        C612   1.266       .  A
O611       Ni622   1.917       .  S
C612        O618   1.272       .  A
C612       C4058   1.477       .  S
C613       C3898   1.483   1_556  S
H614        O615   0.966       .  S
O615       Ni623   1.922       .  S
O615       Ni617   1.904       .  S
O615       Ni622   1.896       .  S
O616       Ni617   1.926       .  S
Ni617       O621   1.927       .  S
Ni617       O619   1.927       .  S
O618       Ni623   1.934       .  S
C620        O621   1.271       .  A
C620       C3838   1.481       .  S
O625       Ni631   1.911       .  S
O625        C646   1.266       .  A
O626       Ni649   1.912       .  S
O626        C635   1.270       .  A
O627       Ni631   1.900       .  S
O627       Ni649   1.904       .  S
O627       Ni643   1.915       .  S
O627        H650   0.966       .  S
C628        O645   1.279       .  A
C628        O637   1.276       .  A
C628       C3758   1.478       .  S
O629       Ni648   1.924       .  S
O629        C635   1.272       .  A
O630       Ni648   1.912       .  S
O630        C632   1.271       .  A
Ni631       O634   1.912       .  S
Ni631       O636   1.899       .  S
C632        O642   1.273       .  A
C632       C3738   1.487       .  S
O633       Ni649   1.928       .  S
O633        C639   1.280       .  A
O634        C639   1.276       .  A
C635       C3789   1.477       .  S
O636        C638   1.267       .  A
O637       Ni648   1.915       .  S
C638        O644   1.272       .  A
C638       C3809   1.485       .  S
C639       C3769   1.482       .  S
H640        O641   0.966       .  S
O641       Ni649   1.920       .  S
O641       Ni643   1.905       .  S
O641       Ni648   1.898       .  S
O642       Ni643   1.927       .  S
Ni643       O647   1.924       .  S
Ni643       O645   1.924       .  S
O644       Ni649   1.933       .  S
C646        O647   1.270       .  A
C646       C4298   1.480       .  S
O651       Ni657   1.910       .  S
O651        C672   1.267       .  A
O652       Ni675   1.915       .  S
O652        C661   1.270       .  A
O653       Ni657   1.899       .  S
O653       Ni675   1.904       .  S
O653       Ni669   1.918       .  S
O653        H676   0.966       .  S
C654        O671   1.282       .  A
C654        O663   1.278       .  A
C654       C3778   1.482       .  S
O655       Ni674   1.921       .  S
O655        C661   1.270       .  A
O656       Ni674   1.908       .  S
O656        C658   1.270       .  A
Ni657       O660   1.914       .  S
Ni657       O662   1.905       .  S
C658        O668   1.276       .  A
C658       C3669   1.490       .  S
O659       Ni675   1.924       .  S
O659        C665   1.280       .  A
O660        C665   1.277       .  A
C661       C3689   1.481       .  S
O662        C664   1.268       .  A
O663       Ni674   1.913       .  S
C664        O670   1.273       .  A
C664       C3709   1.489       .  S
C665       C3749   1.481       .  S
H666        O667   0.966       .  S
O667       Ni675   1.918       .  S
O667       Ni669   1.904       .  S
O667       Ni674   1.894       .  S
O668       Ni669   1.935       .  S
Ni669       O673   1.928       .  S
Ni669       O671   1.930       .  S
O670       Ni675   1.938       .  S
C672        O673   1.272       .  A
C672       C4218   1.479       .  S
O677       Ni683   1.918       .  S
O677        C698   1.269       .  A
O678       Ni701   1.909       .  S
O678        C687   1.269       .  A
O679       Ni683   1.898       .  S
O679       Ni701   1.905       .  S
O679       Ni695   1.913       .  S
O679        H702   0.966       .  S
C680        O697   1.280       .  A
C680        O689   1.277       .  A
C680       C3618   1.480   1_554  S
O681       Ni700   1.923       .  S
O681        C687   1.272       .  A
O682       Ni700   1.912       .  S
O682        C684   1.271       .  A
Ni683       O686   1.923       .  S
Ni683       O688   1.902       .  S
C684        O694   1.275       .  A
C684       C4998   1.489       .  S
O685       Ni701   1.920       .  S
O685        C691   1.278       .  A
O686        C691   1.278       .  A
C687       C3649   1.477       .  S
O688        C690   1.267       .  A
O689       Ni700   1.914       .  S
C690        O696   1.271       .  A
C690       C3818   1.478       .  S
C691       C3629   1.482       .  S
H692        O693   0.966       .  S
O693       Ni701   1.918       .  S
O693       Ni695   1.903       .  S
O693       Ni700   1.895       .  S
O694       Ni695   1.931       .  S
Ni695       O699   1.917       .  S
Ni695       O697   1.927       .  S
O696       Ni701   1.937       .  S
C698        O699   1.270       .  A
C698       C4118   1.477       .  S
O703       Ni709   1.913       .  S
O703        C724   1.268       .  A
O704       Ni727   1.910       .  S
O704        C713   1.271       .  A
O705       Ni709   1.893       .  S
O705       Ni727   1.901       .  S
O705       Ni721   1.915       .  S
O705        H728   0.966       .  S
C706        O723   1.281       .  A
C706        O715   1.277       .  A
C706       C3638   1.478       .  S
O707       Ni726   1.922       .  S
O707        C713   1.272       .  A
O708       Ni726   1.912       .  S
O708        C710   1.271       .  A
Ni709       O712   1.917       .  S
Ni709       O714   1.902       .  S
C710        O720   1.274       .  A
C710       C5049   1.486       .  S
O711       Ni727   1.925       .  S
O711        C717   1.281       .  A
O712        C717   1.278       .  A
C713       C3598   1.477       .  S
O714        C716   1.267       .  A
O715       Ni726   1.915       .  S
C716        O722   1.273       .  A
C716       C3718   1.486       .  S
C717       C3609   1.483       .  S
H718        O719   0.966       .  S
O719       Ni727   1.919       .  S
O719       Ni721   1.902       .  S
O719       Ni726   1.893       .  S
O720       Ni721   1.931       .  S
Ni721       O725   1.925       .  S
Ni721       O723   1.931       .  S
O722       Ni727   1.941       .  S
C724        O725   1.272       .  A
C724       C4078   1.481       .  S
O729       Ni735   1.912       .  S
O729        C750   1.267       .  A
O730       Ni753   1.912       .  S
O730        C739   1.271       .  A
O731       Ni735   1.893       .  S
O731       Ni753   1.902   1_545  S
O731       Ni747   1.913       .  S
O731        H754   0.966       .  S
C732        O749   1.280   1_565  A
C732        O741   1.278       .  A
C732       C3538   1.477   1_564  S
O733       Ni752   1.926       .  S
O733        C739   1.272       .  A
O734       Ni752   1.912       .  S
O734        C736   1.270       .  A
Ni735       O738   1.916       .  S
Ni735       O740   1.898       .  S
C736        O746   1.272   1_565  A
C736       C3518   1.484       .  S
O737       Ni753   1.923       .  S
O737        C743   1.280   1_565  A
O738        C743   1.277       .  A
C739       C3798   1.482       .  S
O740        C742   1.267       .  A
O741       Ni752   1.919       .  S
C742        O748   1.273   1_545  A
C742       C3569   1.483       .  S
C743       C3558   1.482       .  S
H744        O745   0.966       .  S
O745       Ni753   1.917       .  S
O745       Ni747   1.901   1_565  S
O745       Ni752   1.895       .  S
O746       Ni747   1.923       .  S
Ni747       O751   1.920       .  S
Ni747       O749   1.925       .  S
O748       Ni753   1.940       .  S
C750        O751   1.270       .  A
C750       C3998   1.477       .  S
O755       Ni761   1.908       .  S
O755        C776   1.266       .  A
O756       Ni779   1.912       .  S
O756        C765   1.270       .  A
O757       Ni761   1.894       .  S
O757       Ni779   1.899   1_545  S
O757       Ni773   1.920       .  S
O757        H780   0.966       .  S
C758        O775   1.282   1_565  A
C758        O767   1.277       .  A
C758       C3549   1.477       .  S
O759       Ni778   1.922       .  S
O759        C765   1.271       .  A
O760       Ni778   1.911       .  S
O760        C762   1.271       .  A
Ni761       O764   1.915       .  S
Ni761       O766   1.900       .  S
C762        O772   1.274   1_565  A
C762       C3469   1.488       .  S
O763       Ni779   1.926       .  S
O763        C769   1.281   1_565  A
O764        C769   1.278       .  A
C765       C3698   1.476       .  S
O766        C768   1.267       .  A
O767       Ni778   1.915       .  S
C768        O774   1.274   1_545  A
C768       C3498   1.487       .  S
C769       C3529   1.482       .  S
H770        O771   0.966       .  S
O771       Ni779   1.919       .  S
O771       Ni773   1.904   1_565  S
O771       Ni778   1.895       .  S
O772       Ni773   1.929       .  S
Ni773       O777   1.929       .  S
Ni773       O775   1.928       .  S
O774       Ni779   1.938       .  S
C776        O777   1.272       .  A
C776       C3938   1.483       .  S
O781       Ni787   1.910       .  S
O781        C802   1.267       .  A
O782       Ni805   1.909       .  S
O782        C791   1.269       .  A
O783       Ni787   1.899       .  S
O783       Ni805   1.903   1_545  S
O783       Ni799   1.922       .  S
O783        H806   0.966       .  S
C784        O801   1.284   1_565  A
C784        O793   1.278       .  A
C784       C3438   1.481       .  S
O785       Ni804   1.926       .  S
O785        C791   1.272       .  A
O786       Ni804   1.911       .  S
O786        C788   1.270       .  A
Ni787       O790   1.917       .  S
Ni787       O792   1.904       .  S
C788        O798   1.274   1_565  A
C788       C4769   1.487       .  S
O789       Ni805   1.922       .  S
O789        C795   1.278   1_565  A
O790        C795   1.277       .  A
C791       C3658   1.481       .  S
O792        C794   1.268       .  A
O793       Ni804   1.912       .  S
C794        O800   1.273   1_545  A
C794       C3578   1.486       .  S
C795       C3449   1.482       .  S
H796        O797   0.966       .  S
O797       Ni805   1.913       .  S
O797       Ni799   1.901   1_565  S
O797       Ni804   1.893       .  S
O798       Ni799   1.930       .  S
Ni799       O803   1.928       .  S
Ni799       O801   1.934       .  S
O800       Ni805   1.936       .  S
C802        O803   1.272       .  A
C802       C3858   1.480       .  S
O807       Ni813   1.913       .  S
O807        C828   1.268       .  A
O808       Ni831   1.909       .  S
O808        C817   1.269       .  A
O809       Ni813   1.900       .  S
O809       Ni831   1.906   1_545  S
O809       Ni825   1.916       .  S
O809        H832   0.966       .  S
C810        O827   1.281   1_565  A
C810        O819   1.277       .  A
C810       C3458   1.476   1_565  S
O811       Ni830   1.925       .  S
O811        C817   1.272       .  A
O812       Ni830   1.914       .  S
O812        C814   1.271       .  A
Ni813       O816   1.921       .  S
Ni813       O818   1.903       .  S
C814        O824   1.273   1_565  A
C814       C4718   1.487       .  S
O815       Ni831   1.918       .  S
O815        C821   1.276   1_565  A
O816        C821   1.276       .  A
C817       C3589   1.479       .  S
O818        C820   1.267       .  A
O819       Ni830   1.916       .  S
C820        O826   1.273   1_545  A
C820       C3489   1.482       .  S
C821       C3429   1.482       .  S
H822        O823   0.966       .  S
O823       Ni831   1.913       .  S
O823       Ni825   1.900   1_565  S
O823       Ni830   1.896       .  S
O824       Ni825   1.926       .  S
Ni825       O829   1.920       .  S
Ni825       O827   1.928       .  S
O826       Ni831   1.939       .  S
C828        O829   1.271       .  A
C828       C3829   1.472       .  S
O833       Ni839   1.934       .  S
O833        C854   1.274       .  A
O834       Ni857   1.930       .  S
O834        C843   1.272       .  A
O835       Ni839   1.898       .  S
O835       Ni857   1.907   1_545  S
O835       Ni851   1.907       .  S
O835        H858   0.966       .  S
C836        O853   1.279   1_565  A
C836        O845   1.276       .  A
C836       C3369   1.480   1_565  S
O837       Ni856   1.907       .  S
O837        C843   1.266       .  A
O838       Ni856   1.906       .  S
O838        C840   1.269       .  A
Ni839       O842   1.926       .  S
Ni839       O844   1.907       .  S
C840        O850   1.272   1_565  A
C840       C3409   1.482   1_565  S
O841       Ni857   1.923       .  S
O841        C847   1.281   1_565  A
O842        C847   1.279       .  A
C843       C3338   1.483       .  S
O844        C846   1.268       .  A
O845       Ni856   1.913       .  S
C846        O852   1.273   1_545  A
C846       C3318   1.484       .  S
C847       C3358   1.482       .  S
H848        O849   0.966       .  S
O849       Ni857   1.925       .  S
O849       Ni851   1.896   1_565  S
O849       Ni856   1.898       .  S
O850       Ni851   1.930       .  S
Ni851       O855   1.902       .  S
Ni851       O853   1.927       .  S
O852       Ni857   1.932       .  S
C854        O855   1.268       .  A
C854       C3398   1.477       .  S
O859       Ni865   1.923       .  S
O859        C880   1.271       .  A
O860       Ni883   1.926       .  S
O860        C869   1.270       .  A
O861       Ni865   1.895       .  S
O861       Ni883   1.904   1_545  S
O861       Ni877   1.912       .  S
O861        H884   0.966       .  S
C862        O879   1.281   1_565  A
C862        O871   1.276       .  A
C862       C3349   1.485   1_565  S
O863       Ni882   1.907       .  S
O863        C869   1.265       .  A
O864       Ni882   1.900       .  S
O864        C866   1.268       .  A
Ni865       O868   1.918       .  S
Ni865       O870   1.907       .  S
C866        O876   1.272   1_565  A
C866       C3298   1.485   1_565  S
O867       Ni883   1.923       .  S
O867        C873   1.281   1_565  A
O868        C873   1.278       .  A
C869       C3249   1.477       .  S
O870        C872   1.268       .  A
O871       Ni882   1.911       .  S
C872        O878   1.273   1_545  A
C872       C3229   1.486       .  S
C873       C3378   1.482       .  S
H874        O875   0.966       .  S
O875       Ni883   1.926       .  S
O875       Ni877   1.901   1_565  S
O875       Ni882   1.897       .  S
O876       Ni877   1.932       .  S
Ni877       O881   1.908       .  S
Ni877       O879   1.934       .  S
O878       Ni883   1.932       .  S
C880        O881   1.269       .  A
C880       C3278   1.477       .  S
O885       Ni891   1.931       .  S
O885        C906   1.273       .  A
O886       Ni909   1.930       .  S
O886        C895   1.271       .  A
O887       Ni891   1.900       .  S
O887       Ni909   1.914   1_545  S
O887       Ni903   1.913       .  S
O887        H910   0.966       .  S
C888        O905   1.281   1_565  A
C888        O897   1.276       .  A
C888       C3189   1.479   1_565  S
O889       Ni908   1.907       .  S
O889        C895   1.265       .  A
O890       Ni908   1.900       .  S
O890        C892   1.268       .  A
Ni891       O894   1.921       .  S
Ni891       O896   1.907       .  S
C892        O902   1.273   1_565  A
C892       C3418   1.486   1_565  S
O893       Ni909   1.922       .  S
O893        C899   1.279   1_565  A
O894        C899   1.278       .  A
C895       C3158   1.483       .  S
O896        C898   1.269       .  A
O897       Ni908   1.909       .  S
C898        O904   1.273   1_545  A
C898       C3478   1.485       .  S
C899       C3169   1.483       .  S
H900        O901   0.966       .  S
O901       Ni909   1.919       .  S
O901       Ni903   1.900   1_565  S
O901       Ni908   1.895       .  S
O902       Ni903   1.936       .  S
Ni903       O907   1.912       .  S
Ni903       O905   1.930       .  S
O904       Ni909   1.930       .  S
C906        O907   1.270       .  A
C906       C3209   1.485       .  S
O911       Ni917   1.930       .  S
O911        C932   1.273       .  A
O912       Ni935   1.936       .  S
O912        C921   1.273       .  A
O913       Ni917   1.897       .  S
O913       Ni935   1.914   1_545  S
O913       Ni929   1.911       .  S
O913        H936   0.966       .  S
C914        O931   1.281       .  A
C914        O923   1.275   1_545  A
C914       C3178   1.476       .  S
O915       Ni934   1.905       .  S
O915        C921   1.265       .  A
O916       Ni934   1.904       .  S
O916        C918   1.269   1_565  A
Ni917       O920   1.923       .  S
Ni917       O922   1.906       .  S
C918        O928   1.272       .  A
C918       C3289   1.485       .  S
O919       Ni935   1.920       .  S
O919        C925   1.280   1_566  A
O920        C925   1.278   1_556  A
C921       C3109   1.484       .  S
O922        C924   1.268       .  A
O923       Ni934   1.908       .  S
C924        O930   1.273   1_545  A
C924       C3509   1.481       .  S
C925       C3198   1.483       .  S
H926        O927   0.966       .  S
O927       Ni935   1.921       .  S
O927       Ni929   1.900   1_565  S
O927       Ni934   1.892       .  S
O928       Ni929   1.931       .  S
Ni929       O933   1.913       .  S
Ni929       O931   1.934       .  S
O930       Ni935   1.930       .  S
C932        O933   1.271       .  A
C932       C3129   1.484       .  S
O937       Ni943   1.937       .  S
O937        C958   1.274       .  A
O938       Ni961   1.926       .  S
O938        C947   1.271       .  A
O939       Ni943   1.903       .  S
O939       Ni961   1.911       .  S
O939       Ni955   1.914       .  S
O939        H962   0.966       .  S
C940        O957   1.280       .  A
C940        O949   1.276       .  A
C940       C3078   1.480       .  S
O941       Ni960   1.909       .  S
O941        C947   1.266       .  A
O942       Ni960   1.906       .  S
O942        C944   1.269       .  A
Ni943       O946   1.926       .  S
Ni943       O948   1.909       .  S
C944        O954   1.271       .  A
C944       C3089   1.486       .  S
O945       Ni961   1.918       .  S
O945        C951   1.279       .  A
O946        C951   1.278       .  A
C947       C3029   1.479       .  S
O948        C950   1.270       .  A
O949       Ni960   1.911       .  S
C950        O956   1.272       .  A
C950       C3978   1.481       .  S
C951       C3049   1.479       .  S
H952        O953   0.966       .  S
O953       Ni961   1.920       .  S
O953       Ni955   1.900       .  S
O953       Ni960   1.900       .  S
O954       Ni955   1.929       .  S
Ni955       O959   1.904       .  S
Ni955       O957   1.929       .  S
O956       Ni961   1.925       .  S
C958        O959   1.268       .  A
C958       C3218   1.484       .  S
O963       Ni969   1.933       .  S
O963        C984   1.273       .  A
O964       Ni987   1.923       .  S
O964        C973   1.268       .  A
O965       Ni969   1.905       .  S
O965       Ni987   1.910       .  S
O965       Ni981   1.914       .  S
O965        H988   0.966       .  S
C966        O983   1.280       .  A
C966        O975   1.276       .  A
C966       C3058   1.480       .  S
O967       Ni986   1.903       .  S
O967        C973   1.263       .  A
O968       Ni986   1.897       .  S
O968        C970   1.267       .  A
Ni969       O972   1.924       .  S
Ni969       O974   1.909       .  S
C970        O980   1.273       .  A
C970       C3009   1.486       .  S
O971       Ni987   1.921       .  S
O971        C977   1.279       .  A
O972        C977   1.278       .  A
C973       C2989   1.475       .  S
O974        C976   1.269       .  A
O975       Ni986   1.911       .  S
C976        O982   1.271       .  A
C976       C3918   1.486       .  S
C977       C3069   1.485       .  S
H978        O979   0.966       .  S
O979       Ni987   1.925       .  S
O979       Ni981   1.900       .  S
O979       Ni986   1.902       .  S
O980       Ni981   1.936       .  S
Ni981       O985   1.907       .  S
Ni981       O983   1.929       .  S
O982       Ni987   1.925       .  S
C984        O985   1.268       .  A
C984       C3138   1.481       .  S
O989       Ni995   1.926       .  S
O989       C1010   1.271       .  A
O990      Ni1013   1.926       .  S
O990        C999   1.271       .  A
O991       Ni995   1.894       .  S
O991      Ni1013   1.903       .  S
O991      Ni1007   1.912       .  S
O991       H1014   0.966       .  S
C992       O1009   1.282       .  A
C992       O1001   1.276       .  A
C992       C2969   1.481       .  S
O993      Ni1012   1.906       .  S
O993        C999   1.266       .  A
O994      Ni1012   1.904       .  S
O994        C996   1.269       .  A
Ni995       O998   1.919       .  S
Ni995      O1000   1.906       .  S
C996       O1006   1.272       .  A
C996       C3098   1.485       .  S
O997      Ni1013   1.925       .  S
O997       C1003   1.282       .  A
O998       C1003   1.279       .  A
C999       C2929   1.478       .  S
O1000      C1002   1.269       .  A
O1001     Ni1012   1.911       .  S
C1002      O1008   1.274       .  A
C1002      C2909   1.488       .  S
C1003      C2949   1.483       .  S
H1004      O1005   0.966       .  S
O1005     Ni1013   1.926       .  S
O1005     Ni1007   1.899       .  S
O1005     Ni1012   1.896       .  S
O1006     Ni1007   1.934       .  S
Ni1007     O1011   1.909       .  S
Ni1007     O1009   1.933       .  S
O1008     Ni1013   1.935       .  S
C1010      O1011   1.269       .  A
C1010      C3389   1.476       .  S
O1015     Ni1021   1.938       .  S
O1015      C1036   1.275       .  A
O1016     Ni1039   1.923       .  S
O1016      C1025   1.271       .  A
O1017     Ni1021   1.893       .  S
O1017     Ni1039   1.902       .  S
O1017     Ni1033   1.904       .  S
O1017      H1040   0.966       .  S
C1018      O1035   1.280       .  A
C1018      O1027   1.277       .  A
C1018      C2958   1.481       .  S
O1019     Ni1038   1.910       .  S
O1019      C1025   1.267       .  A
O1020     Ni1038   1.908       .  S
O1020      C1022   1.269       .  A
Ni1021     O1024   1.924       .  S
Ni1021     O1026   1.909       .  S
C1022      O1032   1.270       .  A
C1022      C3018   1.482       .  S
O1023     Ni1039   1.921       .  S
O1023      C1029   1.281       .  A
O1024      C1029   1.280       .  A
C1025      C2889   1.479       .  S
O1026      C1028   1.270       .  A
O1027     Ni1038   1.914       .  S
C1028      O1034   1.274       .  A
C1028      C2869   1.488       .  S
C1029      C2978   1.482   1_556  S
H1030      O1031   0.966       .  S
O1031     Ni1039   1.922       .  S
O1031     Ni1033   1.893       .  S
O1031     Ni1038   1.895       .  S
O1032     Ni1033   1.927       .  S
Ni1033     O1037   1.895       .  S
Ni1033     O1035   1.931       .  S
O1034     Ni1039   1.934       .  S
C1036      O1037   1.266       .  A
C1036      C3269   1.472       .  S
O1041     Ni1047   1.934       .  S
O1041      C1062   1.274       .  A
O1042     Ni1065   1.927       .  S
O1042      C1051   1.269       .  A
O1043     Ni1047   1.900       .  S
O1043     Ni1065   1.908       .  S
O1043     Ni1059   1.910       .  S
O1043      H1066   0.966       .  S
C1044      O1061   1.279       .  A
C1044      O1053   1.275       .  A
C1044      C2789   1.480       .  S
O1045     Ni1064   1.906       .  S
O1045      C1051   1.265       .  A
O1046     Ni1064   1.906       .  S
O1046      C1048   1.269       .  A
Ni1047     O1050   1.923       .  S
Ni1047     O1052   1.911       .  S
C1048      O1058   1.273       .  A
C1048      C2849   1.487       .  S
O1049     Ni1065   1.921       .  S
O1049      C1055   1.280       .  A
O1050      C1055   1.279       .  A
C1051      C3149   1.476       .  S
O1052      C1054   1.269       .  A
O1053     Ni1064   1.911       .  S
C1054      O1060   1.272       .  A
C1054      C3729   1.486       .  S
C1055      C2809   1.483       .  S
H1056      O1057   0.966       .  S
O1057     Ni1065   1.924       .  S
O1057     Ni1059   1.903       .  S
O1057     Ni1064   1.901       .  S
O1058     Ni1059   1.932       .  S
Ni1059     O1063   1.914       .  S
Ni1059     O1061   1.928       .  S
O1060     Ni1065   1.925       .  S
C1062      O1063   1.270       .  A
C1062      C2829   1.483       .  S
O1067     Ni1073   1.937       .  S
O1067      C1088   1.275   1_556  A
O1068     Ni1091   1.935       .  S
O1068      C1077   1.273       .  A
O1069     Ni1073   1.897       .  S
O1069     Ni1091   1.910       .  S
O1069     Ni1085   1.908   1_556  S
O1069      H1092   0.966       .  S
C1070      O1087   1.280       .  A
C1070      O1079   1.276       .  A
C1070      C2818   1.480       .  S
O1071     Ni1090   1.909   1_556  S
O1071      C1077   1.266       .  A
O1072     Ni1090   1.904       .  S
O1072      C1074   1.269       .  A
Ni1073     O1076   1.925       .  S
Ni1073     O1078   1.910       .  S
C1074      O1084   1.274       .  A
C1074      C2778   1.488       .  S
O1075     Ni1091   1.921       .  S
O1075      C1081   1.281       .  A
O1076      C1081   1.280       .  A
C1077      C3118   1.486       .  S
O1078      C1080   1.270       .  A
O1079     Ni1090   1.913       .  S
C1080      O1086   1.274       .  A
C1080      C3678   1.488       .  S
C1081      C2798   1.484       .  S
H1082      O1083   0.966       .  S
O1083     Ni1091   1.922   1_554  S
O1083     Ni1085   1.901       .  S
O1083     Ni1090   1.895       .  S
O1084     Ni1085   1.936       .  S
Ni1085     O1089   1.914       .  S
Ni1085     O1087   1.928       .  S
O1086     Ni1091   1.932       .  S
C1088      O1089   1.271       .  A
C1088      C2749   1.486       .  S
O1093     Ni1099   1.934       .  S
O1093      C1114   1.275       .  A
O1094     Ni1117   1.933       .  S
O1094      C1103   1.273       .  A
O1095     Ni1099   1.900       .  S
O1095     Ni1117   1.912       .  S
O1095     Ni1111   1.913       .  S
O1095      H1118   0.966       .  S
C1096      O1113   1.281       .  A
C1096      O1105   1.277       .  A
C1096      C2689   1.483   1_554  S
O1097     Ni1116   1.910       .  S
O1097      C1103   1.266       .  A
O1098     Ni1116   1.905       .  S
O1098      C1100   1.269       .  A
Ni1099     O1102   1.922       .  S
Ni1099     O1104   1.912       .  S
C1100      O1110   1.273       .  A
C1100      C2769   1.488       .  S
O1101     Ni1117   1.922       .  S
O1101      C1107   1.280       .  A
O1102      C1107   1.278       .  A
C1103      C3329   1.484       .  S
O1104      C1106   1.271       .  A
O1105     Ni1116   1.914       .  S
C1106      O1112   1.274       .  A
C1106      C2678   1.489       .  S
C1107      C2709   1.483       .  S
H1108      O1109   0.966       .  S
O1109     Ni1117   1.922       .  S
O1109     Ni1111   1.898       .  S
O1109     Ni1116   1.894       .  S
O1110     Ni1111   1.936       .  S
Ni1111     O1115   1.906       .  S
Ni1111     O1113   1.933       .  S
O1112     Ni1117   1.933       .  S
C1114      O1115   1.270       .  A
C1114      C2729   1.482       .  S
O1119     Ni1125   1.928       .  S
O1119      C1140   1.273       .  A
O1120     Ni1143   1.930       .  S
O1120      C1129   1.273       .  A
O1121     Ni1125   1.894       .  S
O1121     Ni1143   1.908       .  S
O1121     Ni1137   1.912       .  S
O1121      H1144   0.966       .  S
C1122      O1139   1.281       .  A
C1122      O1131   1.276       .  A
C1122      C2718   1.480       .  S
O1123     Ni1142   1.908       .  S
O1123      C1129   1.266       .  A
O1124     Ni1142   1.907       .  S
O1124      C1126   1.268       .  A
Ni1125     O1128   1.919       .  S
Ni1125     O1130   1.909       .  S
C1126      O1136   1.273       .  A
C1126      C2858   1.485       .  S
O1127     Ni1143   1.928       .  S
O1127      C1133   1.282       .  A
O1128      C1133   1.278       .  A
C1129      C3258   1.482       .  S
O1130      C1132   1.270       .  A
O1131     Ni1142   1.914       .  S
C1132      O1138   1.273       .  A
C1132      C2629   1.485       .  S
C1133      C2698   1.486       .  S
H1134      O1135   0.966       .  S
O1135     Ni1143   1.925       .  S
O1135     Ni1137   1.895       .  S
O1135     Ni1142   1.894       .  S
O1136     Ni1137   1.932       .  S
Ni1137     O1141   1.910       .  S
Ni1137     O1139   1.931       .  S
O1138     Ni1143   1.931       .  S
C1140      O1141   1.271       .  A
C1140      C2649   1.481       .  S
O1145     Ni1151   1.937       .  S
O1145      C1166   1.275       .  A
O1146     Ni1169   1.927       .  S
O1146      C1155   1.271       .  A
O1147     Ni1151   1.897       .  S
O1147     Ni1169   1.908       .  S
O1147     Ni1163   1.908       .  S
O1147      H1170   0.966       .  S
C1148      O1165   1.281       .  A
C1148      O1157   1.276       .  A
C1148      C2569   1.480   1_554  S
O1149     Ni1168   1.910       .  S
O1149      C1155   1.266       .  A
O1150     Ni1168   1.904       .  S
O1150      C1152   1.269       .  A
Ni1151     O1154   1.927       .  S
Ni1151     O1156   1.912       .  S
C1152      O1162   1.275       .  A
C1152      C2609   1.488       .  S
O1153     Ni1169   1.919       .  S
O1153      C1159   1.280       .  A
O1154      C1159   1.280       .  A
C1155      C3038   1.482       .  S
O1156      C1158   1.270       .  A
O1157     Ni1168   1.912       .  S
C1158      O1164   1.272       .  A
C1158      C4278   1.487       .  S
C1159      C2589   1.484       .  S
H1160      O1161   0.966       .  S
O1161     Ni1169   1.920       .  S
O1161     Ni1163   1.899       .  S
O1161     Ni1168   1.893       .  S
O1162     Ni1163   1.938       .  S
Ni1163     O1167   1.914       .  S
Ni1163     O1165   1.932       .  S
O1164     Ni1169   1.930       .  S
C1166      O1167   1.272       .  A
C1166      C2758   1.486       .  S
O1171     Ni1177   1.934       .  S
O1171      C1192   1.274       .  A
O1172     Ni1195   1.923       .  S
O1172      C1181   1.268       .  A
O1173     Ni1177   1.900       .  S
O1173     Ni1195   1.905       .  S
O1173     Ni1189   1.912       .  S
O1173      H1196   0.966       .  S
C1174      O1191   1.282       .  A
C1174      O1183   1.276       .  A
C1174      C2598   1.482       .  S
O1175     Ni1194   1.904       .  S
O1175      C1181   1.264       .  A
O1176     Ni1194   1.902       .  S
O1176      C1178   1.268       .  A
Ni1177     O1180   1.929       .  S
Ni1177     O1182   1.913       .  S
C1178      O1188   1.276       .  A
C1178      C2558   1.492       .  S
O1179     Ni1195   1.918       .  S
O1179      C1185   1.280       .  A
O1180      C1185   1.280       .  A
C1181      C2998   1.476       .  S
O1182      C1184   1.269       .  A
O1183     Ni1194   1.910       .  S
C1184      O1190   1.270       .  A
C1184      C4198   1.486       .  S
C1185      C2578   1.483       .  S
H1186      O1187   0.966       .  S
O1187     Ni1195   1.924       .  S
O1187     Ni1189   1.898       .  S
O1187     Ni1194   1.894       .  S
O1188     Ni1189   1.944       .  S
Ni1189     O1193   1.913       .  S
Ni1189     O1191   1.934       .  S
O1190     Ni1195   1.924       .  S
C1192      O1193   1.272       .  A
C1192      C2838   1.484       .  S
O1197     Ni1203   1.928       .  S
O1197      C1218   1.273       .  A
O1198     Ni1221   1.927       .  S
O1198      C1207   1.270       .  A
O1199     Ni1203   1.902       .  S
O1199     Ni1221   1.912       .  S
O1199     Ni1215   1.919       .  S
O1199      H1222   0.966       .  S
C1200      O1217   1.282       .  A
C1200      O1209   1.276       .  A
C1200      C2509   1.483       .  S
O1201     Ni1220   1.905       .  S
O1201      C1207   1.265       .  A
O1202     Ni1220   1.908       .  S
O1202      C1204   1.269       .  A
Ni1203     O1206   1.925       .  S
Ni1203     O1208   1.909       .  S
C1204      O1214   1.274       .  A
C1204      C2549   1.491       .  S
O1205     Ni1221   1.922       .  S
O1205      C1211   1.279       .  A
O1206      C1211   1.277       .  A
C1207      C2938   1.479       .  S
O1208      C1210   1.269       .  A
O1209     Ni1220   1.909       .  S
C1210      O1216   1.274       .  A
C1210      C2489   1.486       .  S
C1211      C2538   1.485       .  S
H1212      O1213   0.966       .  S
O1213     Ni1221   1.923       .  S
O1213     Ni1215   1.897       .  S
O1213     Ni1220   1.897       .  S
O1214     Ni1215   1.938       .  S
Ni1215     O1219   1.914       .  S
Ni1215     O1217   1.935       .  S
O1216     Ni1221   1.934       .  S
C1218      O1219   1.271       .  A
C1218      C2658   1.483       .  S
O1223     Ni1229   1.926       .  S
O1223      C1244   1.272   1_556  A
O1224     Ni1247   1.926       .  S
O1224      C1233   1.270       .  A
O1225     Ni1229   1.902       .  S
O1225     Ni1247   1.913       .  S
O1225     Ni1241   1.919   1_556  S
O1225      H1248   0.966       .  S
C1226      O1243   1.282       .  A
C1226      O1235   1.276       .  A
C1226      C2529   1.484       .  S
O1227     Ni1246   1.903   1_556  S
O1227      C1233   1.264       .  A
O1228     Ni1246   1.906       .  S
O1228      C1230   1.269       .  A
Ni1229     O1232   1.919       .  S
Ni1229     O1234   1.909       .  S
C1230      O1240   1.273       .  A
C1230      C2618   1.488       .  S
O1231     Ni1247   1.923       .  S
O1231      C1237   1.278       .  A
O1232      C1237   1.276       .  A
C1233      C2898   1.476       .  S
O1234      C1236   1.270       .  A
O1235     Ni1246   1.909       .  S
C1236      O1242   1.274       .  A
C1236      C2469   1.488       .  S
C1237      C2518   1.484       .  S
H1238      O1239   0.966       .  S
O1239     Ni1247   1.923   1_554  S
O1239     Ni1241   1.898       .  S
O1239     Ni1246   1.900       .  S
O1240     Ni1241   1.933       .  S
Ni1241     O1245   1.911       .  S
Ni1241     O1243   1.935       .  S
O1242     Ni1247   1.934       .  S
C1244      O1245   1.270       .  A
C1244      C2738   1.481       .  S
O1249     Ni1255   1.910       .  S
O1249      C1270   1.266       .  A
O1250     Ni1273   1.912       .  S
O1250      C1259   1.270       .  A
O1251     Ni1255   1.899       .  S
O1251     Ni1273   1.903       .  S
O1251     Ni1267   1.917       .  S
O1251      H1274   0.966       .  S
C1252      O1269   1.281   1_556  A
C1252      O1261   1.278   1_556  A
C1252      C2389   1.481       .  S
O1253     Ni1272   1.923       .  S
O1253      C1259   1.272       .  A
O1254     Ni1272   1.913       .  S
O1254      C1256   1.270       .  A
Ni1255     O1258   1.917       .  S
Ni1255     O1260   1.902       .  S
C1256      O1266   1.275       .  A
C1256      C5158   1.489       .  S
O1257     Ni1273   1.924       .  S
O1257      C1263   1.280       .  A
O1258      C1263   1.277       .  A
C1259      C2429   1.480       .  S
O1260      C1262   1.267       .  A
O1261     Ni1272   1.916       .  S
C1262      O1268   1.273       .  A
C1262      C2449   1.484       .  S
C1263      C2409   1.482       .  S
H1264      O1265   0.966       .  S
O1265     Ni1273   1.919       .  S
O1265     Ni1267   1.903       .  S
O1265     Ni1272   1.896       .  S
O1266     Ni1267   1.931       .  S
Ni1267     O1271   1.925       .  S
Ni1267     O1269   1.929       .  S
O1268     Ni1273   1.939       .  S
C1270      O1271   1.271       .  A
C1270      C2369   1.479       .  S
O1275     Ni1281   1.909       .  S
O1275      C1296   1.265       .  A
O1276     Ni1299   1.911       .  S
O1276      C1285   1.269       .  A
O1277     Ni1281   1.899       .  S
O1277     Ni1299   1.903       .  S
O1277     Ni1293   1.917       .  S
O1277      H1300   0.966       .  S
C1278      O1295   1.280       .  A
C1278      O1287   1.277       .  A
C1278      C2418   1.483       .  S
O1279     Ni1298   1.925       .  S
O1279      C1285   1.271       .  A
O1280     Ni1298   1.910       .  S
O1280      C1282   1.270       .  A
Ni1281     O1284   1.916       .  S
Ni1281     O1286   1.901       .  S
C1282      O1292   1.273       .  A
C1282      C5218   1.485       .  S
O1283     Ni1299   1.925       .  S
O1283      C1289   1.280       .  A
O1284      C1289   1.277       .  A
C1285      C2329   1.481       .  S
O1286      C1288   1.267       .  A
O1287     Ni1298   1.916       .  S
C1288      O1294   1.272       .  A
C1288      C2349   1.485       .  S
C1289      C2398   1.483       .  S
H1290      O1291   0.966       .  S
O1291     Ni1299   1.920       .  S
O1291     Ni1293   1.909       .  S
O1291     Ni1298   1.901       .  S
O1292     Ni1293   1.925       .  S
Ni1293     O1297   1.931       .  S
Ni1293     O1295   1.928       .  S
O1294     Ni1299   1.935       .  S
C1296      O1297   1.271       .  A
C1296      C2309   1.483       .  S
O1301     Ni1307   1.913       .  S
O1301      C1322   1.268       .  A
O1302     Ni1325   1.905       .  S
O1302      C1311   1.269       .  A
O1303     Ni1307   1.897       .  S
O1303     Ni1325   1.901       .  S
O1303     Ni1319   1.918       .  S
O1303      H1326   0.966       .  S
C1304      O1321   1.281       .  A
C1304      O1313   1.278       .  A
C1304      C2249   1.479       .  S
O1305     Ni1324   1.928       .  S
O1305      C1311   1.273       .  A
O1306     Ni1324   1.914       .  S
O1306      C1308   1.271       .  A
Ni1307     O1310   1.918       .  S
Ni1307     O1312   1.904       .  S
C1308      O1318   1.273       .  A
C1308      C2498   1.489       .  S
O1309     Ni1325   1.921       .  S
O1309      C1315   1.279       .  A
O1310      C1315   1.277       .  A
C1311      C2289   1.480       .  S
O1312      C1314   1.268       .  A
O1313     Ni1324   1.916       .  S
C1314      O1320   1.272       .  A
C1314      C2458   1.483       .  S
C1315      C2278   1.474       .  S
H1316      O1317   0.966       .  S
O1317     Ni1325   1.913       .  S
O1317     Ni1319   1.903       .  S
O1317     Ni1324   1.897       .  S
O1318     Ni1319   1.927       .  S
Ni1319     O1323   1.922       .  S
Ni1319     O1321   1.928       .  S
O1320     Ni1325   1.933       .  S
C1322      O1323   1.270       .  A
C1322      C2229   1.480       .  S
O1327     Ni1333   1.906       .  S
O1327      C1348   1.265       .  A
O1328     Ni1351   1.912       .  S
O1328      C1337   1.269       .  A
O1329     Ni1333   1.905       .  S
O1329     Ni1351   1.905       .  S
O1329     Ni1345   1.923       .  S
O1329      H1352   0.966       .  S
C1330      O1347   1.281       .  A
C1330      O1339   1.277       .  A
C1330      C2269   1.482       .  S
O1331     Ni1350   1.924       .  S
O1331      C1337   1.271       .  A
O1332     Ni1350   1.910       .  S
O1332      C1334   1.270       .  A
Ni1333     O1336   1.915       .  S
Ni1333     O1338   1.904       .  S
C1334      O1344   1.274       .  A
C1334      C2478   1.490       .  S
O1335     Ni1351   1.925       .  S
O1335      C1341   1.280       .  A
O1336      C1341   1.276       .  A
C1337      C2218   1.482       .  S
O1338      C1340   1.268       .  A
O1339     Ni1350   1.913       .  S
C1340      O1346   1.272       .  A
C1340      C2358   1.483       .  S
C1341      C2258   1.484       .  S
H1342      O1343   0.966       .  S
O1343     Ni1351   1.920       .  S
O1343     Ni1345   1.906       .  S
O1343     Ni1350   1.900       .  S
O1344     Ni1345   1.933       .  S
Ni1345     O1349   1.922       .  S
Ni1345     O1347   1.930       .  S
O1346     Ni1351   1.934       .  S
C1348      O1349   1.269       .  A
C1348      C2189   1.473       .  S
O1353     Ni1359   1.910       .  S
O1353      C1374   1.267       .  A
O1354     Ni1377   1.910       .  S
O1354      C1363   1.269       .  A
O1355     Ni1359   1.899       .  S
O1355     Ni1377   1.901       .  S
O1355     Ni1371   1.926       .  S
O1355      H1378   0.966       .  S
C1356      O1373   1.282       .  A
C1356      O1365   1.278       .  A
C1356      C2129   1.484       .  S
O1357     Ni1376   1.921       .  S
O1357      C1363   1.271       .  A
O1358     Ni1376   1.906       .  S
O1358      C1360   1.270       .  A
Ni1359     O1362   1.912       .  S
Ni1359     O1364   1.905       .  S
C1360      O1370   1.275       .  A
C1360      C4409   1.492       .  S
O1361     Ni1377   1.931       .  S
O1361      C1367   1.281       .  A
O1362      C1367   1.277       .  A
C1363      C2438   1.477       .  S
O1364      C1366   1.269       .  A
O1365     Ni1376   1.915       .  S
C1366      O1372   1.273       .  A
C1366      C2169   1.486       .  S
C1367      C2149   1.485       .  S
H1368      O1369   0.966       .  S
O1369     Ni1377   1.918       .  S
O1369     Ni1371   1.903       .  S
O1369     Ni1376   1.895       .  S
O1370     Ni1371   1.938       .  S
Ni1371     O1375   1.925       .  S
Ni1371     O1373   1.929       .  S
O1372     Ni1377   1.935       .  S
C1374      O1375   1.271       .  A
C1374      C2118   1.480       .  S
O1379     Ni1385   1.915       .  S
O1379      C1400   1.268       .  A
O1380     Ni1403   1.907       .  S
O1380      C1389   1.268       .  A
O1381     Ni1385   1.902       .  S
O1381     Ni1403   1.902       .  S
O1381     Ni1397   1.919       .  S
O1381      H1404   0.966       .  S
C1382      O1399   1.279       .  A
C1382      O1391   1.277       .  A
C1382      C2158   1.477       .  S
O1383     Ni1402   1.927       .  S
O1383      C1389   1.272       .  A
O1384     Ni1402   1.913       .  S
O1384      C1386   1.271       .  A
Ni1385     O1388   1.919       .  S
Ni1385     O1390   1.907       .  S
C1386      O1396   1.275       .  A
C1386      C4398   1.490       .  S
O1387     Ni1403   1.923       .  S
O1387      C1393   1.279       .  A
O1388      C1393   1.277       .  A
C1389      C2338   1.479       .  S
O1390      C1392   1.269       .  A
O1391     Ni1402   1.918       .  S
C1392      O1398   1.271       .  A
C1392      C2089   1.482       .  S
C1393      C2138   1.479       .  S
H1394      O1395   0.966       .  S
O1395     Ni1403   1.916       .  S
O1395     Ni1397   1.906       .  S
O1395     Ni1402   1.900       .  S
O1396     Ni1397   1.931       .  S
Ni1397     O1401   1.922       .  S
Ni1397     O1399   1.926       .  S
O1398     Ni1403   1.927       .  S
C1400      O1401   1.271       .  A
C1400      C2069   1.480       .  S
O1405     Ni1411   1.913       .  S
O1405      C1426   1.267       .  A
O1406     Ni1429   1.911       .  S
O1406      C1415   1.270       .  A
O1407     Ni1411   1.897       .  S
O1407     Ni1429   1.905       .  S
O1407     Ni1423   1.917       .  S
O1407      H1430   0.966       .  S
C1408      O1425   1.281       .  A
C1408      O1417   1.278       .  A
C1408      C2029   1.480   1_554  S
O1409     Ni1428   1.925       .  S
O1409      C1415   1.272       .  A
O1410     Ni1428   1.912       .  S
O1410      C1412   1.271       .  A
Ni1411     O1414   1.911       .  S
Ni1411     O1416   1.902       .  S
C1412      O1422   1.275       .  A
C1412      C2878   1.489       .  S
O1413     Ni1429   1.929       .  S
O1413      C1419   1.280       .  A
O1414      C1419   1.276       .  A
C1415      C2298   1.480       .  S
O1416      C1418   1.268       .  A
O1417     Ni1428   1.916       .  S
C1418      O1424   1.273       .  A
C1418      C2178   1.487       .  S
C1419      C2049   1.484       .  S
H1420      O1421   0.966       .  S
O1421     Ni1429   1.917       .  S
O1421     Ni1423   1.904       .  S
O1421     Ni1428   1.894       .  S
O1422     Ni1423   1.931       .  S
Ni1423     O1427   1.930       .  S
Ni1423     O1425   1.927       .  S
O1424     Ni1429   1.936       .  S
C1426      O1427   1.272       .  A
C1426      C2018   1.484       .  S
O1431     Ni1437   1.913       .  S
O1431      C1452   1.267       .  A
O1432     Ni1455   1.918       .  S
O1432      C1441   1.271       .  A
O1433     Ni1437   1.900       .  S
O1433     Ni1455   1.907       .  S
O1433     Ni1449   1.918       .  S
O1433      H1456   0.966       .  S
C1434      O1451   1.282       .  A
C1434      O1443   1.277       .  A
C1434      C2058   1.478       .  S
O1435     Ni1454   1.920       .  S
O1435      C1441   1.271       .  A
O1436     Ni1454   1.914       .  S
O1436      C1438   1.271       .  A
Ni1437     O1440   1.922       .  S
Ni1437     O1442   1.900       .  S
C1438      O1448   1.274       .  A
C1438      C2918   1.490       .  S
O1439     Ni1455   1.920       .  S
O1439      C1445   1.279       .  A
O1440      C1445   1.277       .  A
C1441      C2209   1.480       .  S
O1442      C1444   1.267       .  A
O1443     Ni1454   1.913       .  S
C1444      O1450   1.273       .  A
C1444      C2098   1.482       .  S
C1445      C2038   1.483       .  S
H1446      O1447   0.966       .  S
O1447     Ni1455   1.917       .  S
O1447     Ni1449   1.902       .  S
O1447     Ni1454   1.895       .  S
O1448     Ni1449   1.929       .  S
Ni1449     O1453   1.928       .  S
Ni1449     O1451   1.930       .  S
O1450     Ni1455   1.937       .  S
C1452      O1453   1.271       .  A
C1452      C1989   1.482       .  S
O1457     Ni1463   1.913   1_554  S
O1457      C1478   1.267       .  A
O1458     Ni1481   1.910       .  S
O1458      C1467   1.268       .  A
O1459     Ni1463   1.902       .  S
O1459     Ni1481   1.904       .  S
O1459     Ni1475   1.916   1_556  S
O1459      H1482   0.966       .  S
C1460      O1477   1.280       .  A
C1460      O1469   1.279       .  A
C1460      C1929   1.482       .  S
O1461     Ni1480   1.934       .  S
O1461      C1467   1.273   1_554  A
O1462     Ni1480   1.908       .  S
O1462      C1464   1.270       .  A
Ni1463     O1466   1.922       .  S
Ni1463     O1468   1.902       .  S
C1464      O1474   1.273       .  A
C1464      C4909   1.488       .  S
O1465     Ni1481   1.916       .  S
O1465      C1471   1.278       .  A
O1466      C1471   1.278       .  A
C1467      C1949   1.483       .  S
O1468      C1470   1.267       .  A
O1469     Ni1480   1.922       .  S
C1470      O1476   1.271       .  A
C1470      C1969   1.481       .  S
C1471      C1918   1.481       .  S
H1472      O1473   0.966       .  S
O1473     Ni1481   1.912   1_554  S
O1473     Ni1475   1.906       .  S
O1473     Ni1480   1.899       .  S
O1474     Ni1475   1.929       .  S
Ni1475     O1479   1.926       .  S
Ni1475     O1477   1.922       .  S
O1476     Ni1481   1.930       .  S
C1478      O1479   1.270       .  A
C1478      C2378   1.480       .  S
O1483     Ni1489   1.910       .  S
O1483      C1504   1.266       .  A
O1484     Ni1507   1.916       .  S
O1484      C1493   1.270       .  A
O1485     Ni1489   1.902       .  S
O1485     Ni1507   1.904       .  S
O1485     Ni1501   1.919       .  S
O1485      H1508   0.966       .  S
C1486      O1503   1.279       .  A
C1486      O1495   1.277       .  A
C1486      C1909   1.475       .  S
O1487     Ni1506   1.925       .  S
O1487      C1493   1.272       .  A
O1488     Ni1506   1.910       .  S
O1488      C1490   1.271       .  A
Ni1489     O1492   1.914       .  S
Ni1489     O1494   1.903       .  S
C1490      O1500   1.274       .  A
C1490      C4869   1.487       .  S
O1491     Ni1507   1.926       .  S
O1491      C1497   1.280       .  A
O1492      C1497   1.277       .  A
C1493      C1878   1.483       .  S
O1494      C1496   1.267       .  A
O1495     Ni1506   1.919       .  S
C1496      O1502   1.272       .  A
C1496      C1889   1.484       .  S
C1497      C1938   1.481       .  S
H1498      O1499   0.966       .  S
O1499     Ni1507   1.920       .  S
O1499     Ni1501   1.909       .  S
O1499     Ni1506   1.901       .  S
O1500     Ni1501   1.928       .  S
Ni1501     O1505   1.929       .  S
Ni1501     O1503   1.922       .  S
O1502     Ni1507   1.930       .  S
C1504      O1505   1.271       .  A
C1504      C2318   1.479       .  S
O1509     Ni1515   1.910       .  S
O1509      C1530   1.266       .  A
O1510     Ni1533   1.916       .  S
O1510      C1519   1.272       .  A
O1511     Ni1515   1.897       .  S
O1511     Ni1533   1.906       .  S
O1511     Ni1527   1.914       .  S
O1511      H1534   0.966       .  S
C1512      O1529   1.280       .  A
C1512      O1521   1.277       .  A
C1512      C1829   1.478       .  S
O1513     Ni1532   1.927       .  S
O1513      C1519   1.273       .  A
O1514     Ni1532   1.916       .  S
O1514      C1516   1.271       .  A
Ni1515     O1518   1.913       .  S
Ni1515     O1520   1.899       .  S
C1516      O1526   1.273       .  A
C1516      C2669   1.489       .  S
O1517     Ni1533   1.928       .  S
O1517      C1523   1.281       .  A
O1518      C1523   1.276       .  A
C1519      C1858   1.484       .  S
O1520      C1522   1.267       .  A
O1521     Ni1532   1.919       .  S
C1522      O1528   1.274       .  A
C1522      C1898   1.481       .  S
C1523      C1809   1.483       .  S
H1524      O1525   0.966       .  S
O1525     Ni1533   1.919       .  S
O1525     Ni1527   1.902       .  S
O1525     Ni1532   1.896       .  S
O1526     Ni1527   1.927       .  S
Ni1527     O1531   1.921       .  S
Ni1527     O1529   1.926       .  S
O1528     Ni1533   1.940       .  S
C1530      O1531   1.270       .  A
C1530      C2238   1.475       .  S
O1535     Ni1541   1.906       .  S
O1535      C1556   1.265       .  A
O1536     Ni1559   1.906       .  S
O1536      C1545   1.268       .  A
O1537     Ni1541   1.897       .  S
O1537     Ni1559   1.900       .  S
O1537     Ni1553   1.919       .  S
O1537      H1560   0.966       .  S
C1538      O1555   1.281       .  A
C1538      O1547   1.277       .  A
C1538      C1818   1.482       .  S
O1539     Ni1558   1.927       .  S
O1539      C1545   1.272       .  A
O1540     Ni1558   1.909       .  S
O1540      C1542   1.270       .  A
Ni1541     O1544   1.916       .  S
Ni1541     O1546   1.899       .  S
C1542      O1552   1.274       .  A
C1542      C2638   1.486       .  S
O1543     Ni1559   1.925       .  S
O1543      C1549   1.280       .  A
O1544      C1549   1.278       .  A
C1545      C1789   1.479       .  S
O1546      C1548   1.266       .  A
O1547     Ni1558   1.914       .  S
C1548      O1554   1.271       .  A
C1548      C1978   1.479       .  S
C1549      C1838   1.483   1_556  S
H1550      O1551   0.966       .  S
O1551     Ni1559   1.917       .  S
O1551     Ni1553   1.905       .  S
O1551     Ni1558   1.895       .  S
O1552     Ni1553   1.927       .  S
Ni1553     O1557   1.928       .  S
Ni1553     O1555   1.930       .  S
O1554     Ni1559   1.929       .  S
C1556      O1557   1.271       .  A
C1556      C2198   1.480       .  S
O1561     Ni1567   1.909       .  S
O1561      C1582   1.266       .  A
O1562     Ni1585   1.911       .  S
O1562      C1571   1.270       .  A
O1563     Ni1567   1.897       .  S
O1563     Ni1585   1.902   1_545  S
O1563     Ni1579   1.915       .  S
O1563      H1586   0.966       .  S
C1564      O1581   1.279   1_565  A
C1564      O1573   1.277       .  A
C1564      C1758   1.478       .  S
O1565     Ni1584   1.929       .  S
O1565      C1571   1.273       .  A
O1566     Ni1584   1.915       .  S
O1566      C1568   1.272       .  A
Ni1567     O1570   1.911       .  S
Ni1567     O1572   1.904       .  S
C1568      O1578   1.276   1_565  A
C1568      C4629   1.491       .  S
O1569     Ni1585   1.928       .  S
O1569      C1575   1.281   1_565  A
O1570      C1575   1.277       .  A
C1571      C1869   1.483       .  S
O1572      C1574   1.268       .  A
O1573     Ni1584   1.915       .  S
C1574      O1580   1.272   1_545  A
C1574      C1778   1.489       .  S
C1575      C1729   1.482       .  S
H1576      O1577   0.966       .  S
O1577     Ni1585   1.919       .  S
O1577     Ni1579   1.910   1_565  S
O1577     Ni1584   1.898       .  S
O1578     Ni1579   1.933       .  S
Ni1579     O1583   1.929       .  S
Ni1579     O1581   1.927       .  S
O1580     Ni1585   1.936       .  S
C1582      O1583   1.272       .  A
C1582      C2109   1.482       .  S
O1587     Ni1593   1.916       .  S
O1587      C1608   1.269       .  A
O1588     Ni1611   1.921       .  S
O1588      C1597   1.272       .  A
O1589     Ni1593   1.896       .  S
O1589     Ni1611   1.909   1_545  S
O1589     Ni1605   1.913       .  S
O1589      H1612   0.966       .  S
C1590      O1607   1.281   1_565  A
C1590      O1599   1.277       .  A
C1590      C1738   1.476       .  S
O1591     Ni1610   1.921       .  S
O1591      C1597   1.270       .  A
O1592     Ni1610   1.913       .  S
O1592      C1594   1.270       .  A
Ni1593     O1596   1.916       .  S
Ni1593     O1598   1.903       .  S
C1594      O1604   1.273   1_565  A
C1594      C4598   1.487       .  S
O1595     Ni1611   1.926       .  S
O1595      C1601   1.281   1_565  A
O1596      C1601   1.276       .  A
C1597      C1958   1.480       .  S
O1598      C1600   1.268       .  A
O1599     Ni1610   1.914       .  S
C1600      O1606   1.273   1_545  A
C1600      C1709   1.481       .  S
C1601      C1749   1.483   1_556  S
H1602      O1603   0.966       .  S
O1603     Ni1611   1.918       .  S
O1603     Ni1605   1.900   1_565  S
O1603     Ni1610   1.894       .  S
O1604     Ni1605   1.928       .  S
Ni1605     O1609   1.920       .  S
Ni1605     O1607   1.929       .  S
O1606     Ni1611   1.938       .  S
C1608      O1609   1.271       .  A
C1608      C2078   1.478       .  S
O1613     Ni1619   1.915   1_554  S
O1613      C1634   1.268       .  A
O1614     Ni1637   1.909       .  S
O1614      C1623   1.269       .  A
O1615     Ni1619   1.903       .  S
O1615     Ni1637   1.905   1_545  S
O1615     Ni1631   1.922   1_556  S
O1615      H1638   0.966       .  S
C1616      O1633   1.280   1_565  A
C1616      O1625   1.277       .  A
C1616      C1689   1.480       .  S
O1617     Ni1636   1.926       .  S
O1617      C1623   1.272   1_554  A
O1618     Ni1636   1.910       .  S
O1618      C1620   1.271       .  A
Ni1619     O1622   1.917       .  S
Ni1619     O1624   1.908       .  S
C1620      O1630   1.274   1_565  A
C1620      C3309   1.487       .  S
O1621     Ni1637   1.925       .  S
O1621      C1627   1.279   1_565  A
O1622      C1627   1.276       .  A
C1623      C1798   1.478       .  S
O1624      C1626   1.269       .  A
O1625     Ni1636   1.915       .  S
C1626      O1632   1.271   1_545  A
C1626      C1718   1.483       .  S
C1627      C1678   1.476       .  S
H1628      O1629   0.966       .  S
O1629     Ni1637   1.917   1_554  S
O1629     Ni1631   1.906   1_565  S
O1629     Ni1636   1.900       .  S
O1630     Ni1631   1.927       .  S
Ni1631     O1635   1.929       .  S
Ni1631     O1633   1.926       .  S
O1632     Ni1637   1.926       .  S
C1634      O1635   1.272       .  A
C1634      C2009   1.484       .  S
O1639     Ni1645   1.912       .  S
O1639      C1660   1.267       .  A
O1640     Ni1663   1.910       .  S
O1640      C1649   1.269       .  A
O1641     Ni1645   1.903       .  S
O1641     Ni1663   1.905   1_545  S
O1641     Ni1657   1.920       .  S
O1641      H1664   0.966       .  S
C1642      O1659   1.282   1_565  A
C1642      O1651   1.277       .  A
C1642      C1669   1.485       .  S
O1643     Ni1662   1.926       .  S
O1643      C1649   1.272       .  A
O1644     Ni1662   1.913       .  S
O1644      C1646   1.271       .  A
Ni1645     O1648   1.924       .  S
Ni1645     O1650   1.905       .  S
C1646      O1656   1.274   1_565  A
C1646      C3238   1.489       .  S
O1647     Ni1663   1.918       .  S
O1647      C1653   1.278   1_565  A
O1648      C1653   1.277       .  A
C1649      C1849   1.479       .  S
O1650      C1652   1.267       .  A
O1651     Ni1662   1.911       .  S
C1652      O1658   1.272   1_545  A
C1652      C1769   1.484       .  S
C1653      C1698   1.484       .  S
H1654      O1655   0.966       .  S
O1655     Ni1663   1.918       .  S
O1655     Ni1657   1.908   1_565  S
O1655     Ni1662   1.899       .  S
O1656     Ni1657   1.929       .  S
Ni1657     O1661   1.928       .  S
Ni1657     O1659   1.935       .  S
O1658     Ni1663   1.940       .  S
C1660      O1661   1.272       .  A
C1660      C1998   1.481       .  S
C1665      C1666   1.410   1_545  A
C1665      C1670   1.402       .  A
C1665      H1675   1.082       .  S
C1666      C1671   1.492       .  S
C1666      C1667   1.404       .  A
C1667      C1668   1.394       .  A
C1667      H1672   1.082       .  S
C1668      C1669   1.408       .  A
C1668      H1673   1.083       .  S
C1669      C1670   1.405   1_565  A
C1670      H1674   1.083       .  S
C1671      C1676   1.410       .  A
C1671      C1680   1.407   1_565  A
C1676      C1677   1.399       .  A
C1676      H1681   1.082       .  S
C1677      C1678   1.403   1_565  A
C1677      H1682   1.083       .  S
C1678      C1679   1.404       .  A
C1679      C1680   1.398       .  A
C1679      H1683   1.083       .  S
C1680      H1684   1.082       .  S
C1685      C1686   1.404   1_565  A
C1685      C1690   1.396       .  A
C1685      H1695   1.083       .  S
C1686      C1691   1.484       .  S
C1686      C1687   1.407       .  A
C1687      C1688   1.398       .  A
C1687      H1692   1.083       .  S
C1688      C1689   1.404   1_545  A
C1688      H1693   1.083       .  S
C1689      C1690   1.407       .  A
C1690      H1694   1.083       .  S
C1691      C1696   1.408   1_545  A
C1691      C1700   1.402       .  A
C1696      C1697   1.401       .  A
C1696      H1701   1.083       .  S
C1697      C1698   1.405   1_565  A
C1697      H1702   1.083       .  S
C1698      C1699   1.408       .  A
C1699      C1700   1.394       .  A
C1699      H1703   1.083       .  S
C1700      H1704   1.083       .  S
C1705      C1706   1.407   1_565  A
C1705      C1710   1.403       .  A
C1705      H1715   1.083       .  S
C1706      C1711   1.489       .  S
C1706      C1707   1.406       .  A
C1707      C1708   1.395       .  A
C1707      H1712   1.083       .  S
C1708      C1709   1.404       .  A
C1708      H1713   1.083       .  S
C1709      C1710   1.407   1_545  A
C1710      H1714   1.083       .  S
C1711      C1716   1.407   1_545  A
C1711      C1720   1.406       .  A
C1716      C1717   1.403       .  A
C1716      H1721   1.083       .  S
C1717      C1718   1.408   1_565  A
C1717      H1722   1.083       .  S
C1718      C1719   1.404       .  A
C1719      C1720   1.395       .  A
C1719      H1723   1.083       .  S
C1720      H1724   1.083       .  S
C1725      C1726   1.409   1_565  A
C1725      C1730   1.402       .  A
C1725      H1735   1.083       .  S
C1726      C1731   1.484       .  S
C1726      C1727   1.402       .  A
C1727      C1728   1.391       .  A
C1727      H1732   1.083       .  S
C1728      C1729   1.408       .  A
C1728      H1733   1.083       .  S
C1729      C1730   1.405   1_545  A
C1730      H1734   1.083       .  S
C1731      C1736   1.405   1_545  A
C1731      C1740   1.407       .  A
C1736      C1737   1.397       .  A
C1736      H1741   1.083       .  S
C1737      C1738   1.406       .  A
C1737      H1742   1.083       .  S
C1738      C1739   1.404   1_565  A
C1739      C1740   1.396       .  A
C1739      H1743   1.083       .  S
C1740      H1744   1.083       .  S
C1745      C1746   1.409   1_565  A
C1745      C1750   1.402       .  A
C1745      H1755   1.083       .  S
C1746      C1751   1.482       .  S
C1746      C1747   1.400       .  A
C1747      C1748   1.391       .  A
C1747      H1752   1.083       .  S
C1748      C1749   1.410       .  A
C1748      H1753   1.083       .  S
C1749      C1750   1.404   1_545  A
C1750      H1754   1.083       .  S
C1751      C1756   1.402   1_545  A
C1751      C1760   1.408       .  A
C1756      C1757   1.395       .  A
C1756      H1761   1.083       .  S
C1757      C1758   1.406       .  A
C1757      H1762   1.083       .  S
C1758      C1759   1.405   1_565  A
C1759      C1760   1.399       .  A
C1759      H1763   1.083       .  S
C1760      H1764   1.083       .  S
C1765      C1766   1.408   1_565  A
C1765      C1770   1.404       .  A
C1765      H1775   1.083       .  S
C1766      C1771   1.493       .  S
C1766      C1767   1.407       .  A
C1767      C1768   1.396       .  A
C1767      H1772   1.083       .  S
C1768      C1769   1.404       .  A
C1768      H1773   1.083       .  S
C1769      C1770   1.407   1_545  A
C1770      H1774   1.083       .  S
C1771      C1776   1.408   1_545  A
C1771      C1780   1.406       .  A
C1776      C1777   1.406       .  A
C1776      H1781   1.083       .  S
C1777      C1778   1.409   1_565  A
C1777      H1782   1.083       .  S
C1778      C1779   1.406       .  A
C1779      C1780   1.395       .  A
C1779      H1783   1.083       .  S
C1780      H1784   1.083       .  S
C1785      C1786   1.403       .  A
C1785      C1790   1.395       .  A
C1785      H1795   1.083       .  S
C1786      C1791   1.480       .  S
C1786      C1787   1.405       .  A
C1787      C1788   1.400       .  A
C1787      H1792   1.083       .  S
C1788      C1789   1.406       .  A
C1788      H1793   1.083       .  S
C1789      C1790   1.406       .  A
C1790      H1794   1.083       .  S
C1791      C1796   1.406       .  A
C1791      C1800   1.403       .  A
C1796      C1797   1.398       .  A
C1796      H1801   1.083       .  S
C1797      C1798   1.404       .  A
C1797      H1802   1.083       .  S
C1798      C1799   1.407       .  A
C1799      C1800   1.397       .  A
C1799      H1803   1.083   1_556  S
C1800      H1804   1.083   1_556  S
C1805      C1806   1.400       .  A
C1805      C1810   1.390       .  A
C1805      H1815   1.083       .  S
C1806      C1811   1.485       .  S
C1806      C1807   1.410       .  A
C1807      C1808   1.403       .  A
C1807      H1812   1.083       .  S
C1808      C1809   1.405       .  A
C1808      H1813   1.083       .  S
C1809      C1810   1.409       .  A
C1810      H1814   1.083       .  S
C1811      C1816   1.408       .  A
C1811      C1820   1.402       .  A
C1816      C1817   1.398       .  A
C1816      H1821   1.083       .  S
C1817      C1818   1.404       .  A
C1817      H1822   1.083       .  S
C1818      C1819   1.408       .  A
C1819      C1820   1.396       .  A
C1819      H1823   1.083       .  S
C1820      H1824   1.083       .  S
C1825      C1826   1.406       .  A
C1825      C1830   1.399       .  A
C1825      H1835   1.083       .  S
C1826      C1831   1.488       .  S
C1826      C1827   1.407       .  A
C1827      C1828   1.395       .  A
C1827      H1832   1.082       .  S
C1828      C1829   1.403       .  A
C1828      H1833   1.083       .  S
C1829      C1830   1.406       .  A
C1830      H1834   1.083       .  S
C1831      C1836   1.409       .  A
C1831      C1840   1.403       .  A
C1836      C1837   1.402       .  A
C1836      H1841   1.083       .  S
C1837      C1838   1.406       .  A
C1837      H1842   1.083       .  S
C1838      C1839   1.407       .  A
C1839      C1840   1.392       .  A
C1839      H1843   1.083       .  S
C1840      H1844   1.082       .  S
C1845      C1846   1.404       .  A
C1845      C1850   1.397       .  A
C1845      H1855   1.083       .  S
C1846      C1851   1.484       .  S
C1846      C1847   1.407       .  A
C1847      C1848   1.400       .  A
C1847      H1852   1.083       .  S
C1848      C1849   1.405       .  A
C1848      H1853   1.083       .  S
C1849      C1850   1.405       .  A
C1850      H1854   1.083       .  S
C1851      C1856   1.406       .  A
C1851      C1860   1.403       .  A
C1856      C1857   1.401       .  A
C1856      H1861   1.083       .  S
C1857      C1858   1.406       .  A
C1857      H1862   1.083       .  S
C1858      C1859   1.408       .  A
C1859      C1860   1.397       .  A
C1859      H1863   1.083       .  S
C1860      H1864   1.083       .  S
C1865      C1866   1.405       .  A
C1865      C1870   1.398       .  A
C1865      H1875   1.083       .  S
C1866      C1871   1.490       .  S
C1866      C1867   1.408       .  A
C1867      C1868   1.401       .  A
C1867      H1872   1.083       .  S
C1868      C1869   1.405       .  A
C1868      H1873   1.083       .  S
C1869      C1870   1.406       .  A
C1870      H1874   1.083       .  S
C1871      C1876   1.409       .  A
C1871      C1880   1.405       .  A
C1876      C1877   1.402       .  A
C1876      H1881   1.083       .  S
C1877      C1878   1.405       .  A
C1877      H1882   1.083       .  S
C1878      C1879   1.406       .  A
C1879      C1880   1.397       .  A
C1879      H1883   1.083       .  S
C1880      H1884   1.083       .  S
C1885      C1886   1.407       .  A
C1885      C1890   1.397       .  A
C1885      H1895   1.083       .  S
C1886      C1891   1.490       .  S
C1886      C1887   1.406       .  A
C1887      C1888   1.401       .  A
C1887      H1892   1.083       .  S
C1888      C1889   1.407       .  A
C1888      H1893   1.083       .  S
C1889      C1890   1.406       .  A
C1890      H1894   1.083       .  S
C1891      C1896   1.406       .  A
C1891      C1900   1.408       .  A
C1896      C1897   1.396       .  A
C1896      H1901   1.083       .  S
C1897      C1898   1.405       .  A
C1897      H1902   1.083       .  S
C1898      C1899   1.405       .  A
C1899      C1900   1.401       .  A
C1899      H1903   1.083       .  S
C1900      H1904   1.082       .  S
C1905      C1906   1.407       .  A
C1905      C1910   1.397       .  A
C1905      H1915   1.082       .  S
C1906      C1911   1.488       .  S
C1906      C1907   1.408       .  A
C1907      C1908   1.396       .  A
C1907      H1912   1.082       .  S
C1908      C1909   1.403       .  A
C1908      H1913   1.083       .  S
C1909      C1910   1.404       .  A
C1910      H1914   1.083       .  S
C1911      C1916   1.408       .  A
C1911      C1920   1.405       .  A
C1916      C1917   1.399       .  A
C1916      H1921   1.082       .  S
C1917      C1918   1.405       .  A
C1917      H1922   1.083       .  S
C1918      C1919   1.406       .  A
C1919      C1920   1.394       .  A
C1919      H1923   1.083       .  S
C1920      H1924   1.082       .  S
C1925      C1926   1.406       .  A
C1925      C1930   1.398       .  A
C1925      H1935   1.083       .  S
C1926      C1931   1.488       .  S
C1926      C1927   1.407       .  A
C1927      C1928   1.396       .  A
C1927      H1932   1.082       .  S
C1928      C1929   1.405       .  A
C1928      H1933   1.083       .  S
C1929      C1930   1.407       .  A
C1930      H1934   1.083       .  S
C1931      C1936   1.409       .  A
C1931      C1940   1.404       .  A
C1936      C1937   1.401       .  A
C1936      H1941   1.082       .  S
C1937      C1938   1.404       .  A
C1937      H1942   1.083       .  S
C1938      C1939   1.407       .  A
C1939      C1940   1.392       .  A
C1939      H1943   1.083       .  S
C1940      H1944   1.083       .  S
C1945      C1946   1.404       .  A
C1945      C1950   1.403       .  A
C1945      H1955   1.083       .  S
C1946      C1951   1.477       .  S
C1946      C1947   1.401       .  A
C1947      C1948   1.395       .  A
C1947      H1952   1.083       .  S
C1948      C1949   1.406       .  A
C1948      H1953   1.083       .  S
C1949      C1950   1.408       .  A
C1950      H1954   1.083       .  S
C1951      C1956   1.404       .  A
C1951      C1960   1.402       .  A
C1956      C1957   1.402       .  A
C1956      H1961   1.083       .  S
C1957      C1958   1.406       .  A
C1957      H1962   1.083       .  S
C1958      C1959   1.406       .  A
C1959      C1960   1.396       .  A
C1959      H1963   1.083       .  S
C1960      H1964   1.083       .  S
C1965      C1966   1.406       .  A
C1965      C1970   1.401       .  A
C1965      H1975   1.083       .  S
C1966      C1971   1.487       .  S
C1966      C1967   1.406       .  A
C1967      C1968   1.395       .  A
C1967      H1972   1.083       .  S
C1968      C1969   1.405       .  A
C1968      H1973   1.083       .  S
C1969      C1970   1.407       .  A
C1970      H1974   1.083       .  S
C1971      C1976   1.407       .  A
C1971      C1980   1.406       .  A
C1976      C1977   1.401       .  A
C1976      H1981   1.083       .  S
C1977      C1978   1.406       .  A
C1977      H1982   1.083       .  S
C1978      C1979   1.404       .  A
C1979      C1980   1.394       .  A
C1979      H1983   1.083       .  S
C1980      H1984   1.083       .  S
C1985      C1986   1.401       .  A
C1985      C1990   1.393       .  A
C1985      H1995   1.083       .  S
C1986      C1991   1.487       .  S
C1986      C1987   1.411       .  A
C1987      C1988   1.406       .  A
C1987      H1992   1.083       .  S
C1988      C1989   1.404       .  A
C1988      H1993   1.083       .  S
C1989      C1990   1.407       .  A
C1990      H1994   1.083       .  S
C1991      C1996   1.401       .  A
C1991      C2000   1.411       .  A
C1996      C1997   1.394       .  A
C1996      H2001   1.083       .  S
C1997      C1998   1.407       .  A
C1997      H2002   1.083       .  S
C1998      C1999   1.403       .  A
C1999      C2000   1.405       .  A
C1999      H2003   1.083       .  S
C2000      H2004   1.083       .  S
C2005      C2006   1.411       .  A
C2005      C2010   1.405       .  A
C2005      H2015   1.083       .  S
C2006      C2011   1.492       .  S
C2006      C2007   1.403       .  A
C2007      C2008   1.396       .  A
C2007      H2012   1.083   1_554  S
C2008      C2009   1.407       .  A
C2008      H2013   1.083   1_554  S
C2009      C2010   1.404       .  A
C2010      H2014   1.083       .  S
C2011      C2016   1.412       .  A
C2011      C2020   1.403       .  A
C2016      C2017   1.406       .  A
C2016      H2021   1.083       .  S
C2017      C2018   1.404       .  A
C2017      H2022   1.083       .  S
C2018      C2019   1.407       .  A
C2019      C2020   1.395       .  A
C2019      H2023   1.083       .  S
C2020      H2024   1.083       .  S
C2025      C2026   1.407       .  A
C2025      C2030   1.398       .  A
C2025      H2035   1.083       .  S
C2026      C2031   1.484       .  S
C2026      C2027   1.403       .  A
C2027      C2028   1.396       .  A
C2027      H2032   1.083       .  S
C2028      C2029   1.407       .  A
C2028      H2033   1.083       .  S
C2029      C2030   1.405       .  A
C2030      H2034   1.083       .  S
C2031      C2036   1.402       .  A
C2031      C2040   1.408       .  A
C2036      C2037   1.394       .  A
C2036      H2041   1.083       .  S
C2037      C2038   1.409       .  A
C2037      H2042   1.083       .  S
C2038      C2039   1.405       .  A
C2039      C2040   1.400       .  A
C2039      H2043   1.083       .  S
C2040      H2044   1.083       .  S
C2045      C2046   1.410       .  A
C2045      C2050   1.403       .  A
C2045      H2055   1.083       .  S
C2046      C2051   1.487       .  S
C2046      C2047   1.402       .  A
C2047      C2048   1.390       .  A
C2047      H2052   1.083       .  S
C2048      C2049   1.408       .  A
C2048      H2053   1.083       .  S
C2049      C2050   1.406       .  A
C2050      H2054   1.083       .  S
C2051      C2056   1.405       .  A
C2051      C2060   1.408       .  A
C2056      C2057   1.398       .  A
C2056      H2061   1.083       .  S
C2057      C2058   1.408       .  A
C2057      H2062   1.083       .  S
C2058      C2059   1.403       .  A
C2059      C2060   1.395       .  A
C2059      H2063   1.083       .  S
C2060      H2064   1.082       .  S
C2065      C2066   1.411       .  A
C2065      C2070   1.403       .  A
C2065      H2075   1.083       .  S
C2066      C2071   1.488       .  S
C2066      C2067   1.403       .  A
C2067      C2068   1.394       .  A
C2067      H2072   1.083       .  S
C2068      C2069   1.406       .  A
C2068      H2073   1.083       .  S
C2069      C2070   1.403       .  A
C2070      H2074   1.083       .  S
C2071      C2076   1.411       .  A
C2071      C2080   1.403       .  A
C2076      C2077   1.403       .  A
C2076      H2081   1.083       .  S
C2077      C2078   1.403       .  A
C2077      H2082   1.083       .  S
C2078      C2079   1.406       .  A
C2079      C2080   1.394       .  A
C2079      H2083   1.083       .  S
C2080      H2084   1.083       .  S
C2085      C2086   1.407       .  A
C2085      C2090   1.396       .  A
C2085      H2095   1.083       .  S
C2086      C2091   1.490       .  S
C2086      C2087   1.407       .  A
C2087      C2088   1.401       .  A
C2087      H2092   1.083       .  S
C2088      C2089   1.406       .  A
C2088      H2093   1.083       .  S
C2089      C2090   1.404       .  A
C2090      H2094   1.083       .  S
C2091      C2096   1.406       .  A
C2091      C2100   1.408       .  A
C2096      C2097   1.396       .  A
C2096      H2101   1.083       .  S
C2097      C2098   1.405       .  A
C2097      H2102   1.083       .  S
C2098      C2099   1.405       .  A
C2099      C2100   1.401       .  A
C2099      H2103   1.083       .  S
C2100      H2104   1.082       .  S
C2105      C2106   1.409       .  A
C2105      C2110   1.404       .  A
C2105      H2115   1.083       .  S
C2106      C2111   1.483       .  S
C2106      C2107   1.400       .  A
C2107      C2108   1.393       .  A
C2107      H2112   1.083       .  S
C2108      C2109   1.408       .  A
C2108      H2113   1.083       .  S
C2109      C2110   1.404       .  A
C2110      H2114   1.083       .  S
C2111      C2116   1.409       .  A
C2111      C2120   1.401       .  A
C2116      C2117   1.403       .  A
C2116      H2121   1.083       .  S
C2117      C2118   1.404       .  A
C2117      H2122   1.083       .  S
C2118      C2119   1.407       .  A
C2119      C2120   1.395       .  A
C2119      H2123   1.083       .  S
C2120      H2124   1.083       .  S
C2125      C2126   1.405       .  A
C2125      C2130   1.395       .  A
C2125      H2135   1.082       .  S
C2126      C2131   1.492       .  S
C2126      C2127   1.410       .  A
C2127      C2128   1.400       .  A
C2127      H2132   1.082       .  S
C2128      C2129   1.404       .  A
C2128      H2133   1.083       .  S
C2129      C2130   1.408       .  A
C2130      H2134   1.083       .  S
C2131      C2136   1.407       .  A
C2131      C2140   1.410       .  A
C2136      C2137   1.396       .  A
C2136      H2141   1.082       .  S
C2137      C2138   1.405       .  A
C2137      H2142   1.083       .  S
C2138      C2139   1.404       .  A
C2139      C2140   1.400       .  A
C2139      H2143   1.083       .  S
C2140      H2144   1.082       .  S
C2145      C2146   1.404       .  A
C2145      C2150   1.395       .  A
C2145      H2155   1.082       .  S
C2146      C2151   1.490   1_554  S
C2146      C2147   1.409       .  A
C2147      C2148   1.401       .  A
C2147      H2152   1.082       .  S
C2148      C2149   1.405       .  A
C2148      H2153   1.083       .  S
C2149      C2150   1.408       .  A
C2150      H2154   1.083       .  S
C2151      C2156   1.408       .  A
C2151      C2160   1.407       .  A
C2156      C2157   1.398       .  A
C2156      H2161   1.082       .  S
C2157      C2158   1.403       .  A
C2157      H2162   1.083       .  S
C2158      C2159   1.405       .  A
C2159      C2160   1.398       .  A
C2159      H2163   1.083       .  S
C2160      H2164   1.083       .  S
C2165      C2166   1.404       .  A
C2165      C2170   1.393       .  A
C2165      H2175   1.083       .  S
C2166      C2171   1.489       .  S
C2166      C2167   1.408       .  A
C2167      C2168   1.406       .  A
C2167      H2172   1.083       .  S
C2168      C2169   1.408       .  A
C2168      H2173   1.083       .  S
C2169      C2170   1.406       .  A
C2170      H2174   1.083       .  S
C2171      C2176   1.408       .  A
C2171      C2180   1.404       .  A
C2176      C2177   1.406       .  A
C2176      H2181   1.083       .  S
C2177      C2178   1.409       .  A
C2177      H2182   1.083       .  S
C2178      C2179   1.405       .  A
C2179      C2180   1.393       .  A
C2179      H2183   1.083       .  S
C2180      H2184   1.083       .  S
C2185      C2186   1.401       .  A
C2185      C2190   1.394       .  A
C2185      H2195   1.083       .  S
C2186      C2191   1.479       .  S
C2186      C2187   1.409       .  A
C2187      C2188   1.401       .  A
C2187      H2192   1.083       .  S
C2188      C2189   1.402       .  A
C2188      H2193   1.083       .  S
C2189      C2190   1.406       .  A
C2190      H2194   1.083       .  S
C2191      C2196   1.399       .  A
C2191      C2200   1.409       .  A
C2196      C2197   1.390       .  A
C2196      H2201   1.083       .  S
C2197      C2198   1.407       .  A
C2197      H2202   1.083       .  S
C2198      C2199   1.405       .  A
C2199      C2200   1.404       .  A
C2199      H2203   1.083       .  S
C2200      H2204   1.083       .  S
C2205      C2206   1.407       .  A
C2205      C2210   1.401       .  A
C2205      H2215   1.083       .  S
C2206      C2211   1.483       .  S
C2206      C2207   1.403       .  A
C2207      C2208   1.396       .  A
C2207      H2212   1.083       .  S
C2208      C2209   1.407       .  A
C2208      H2213   1.083       .  S
C2209      C2210   1.404       .  A
C2210      H2214   1.083       .  S
C2211      C2216   1.403       .  A
C2211      C2220   1.406       .  A
C2216      C2217   1.396       .  A
C2216      H2221   1.083       .  S
C2217      C2218   1.406       .  A
C2217      H2222   1.083       .  S
C2218      C2219   1.406       .  A
C2219      C2220   1.401       .  A
C2219      H2223   1.083       .  S
C2220      H2224   1.083       .  S
C2225      C2226   1.409       .  A
C2225      C2230   1.404       .  A
C2225      H2235   1.083       .  S
C2226      C2231   1.481       .  S
C2226      C2227   1.400       .  A
C2227      C2228   1.391       .  A
C2227      H2232   1.083       .  S
C2228      C2229   1.407       .  A
C2228      H2233   1.083       .  S
C2229      C2230   1.405       .  A
C2230      H2234   1.083       .  S
C2231      C2236   1.409       .  A
C2231      C2240   1.401       .  A
C2236      C2237   1.402       .  A
C2236      H2241   1.083       .  S
C2237      C2238   1.402       .  A
C2237      H2242   1.083       .  S
C2238      C2239   1.407       .  A
C2239      C2240   1.394       .  A
C2239      H2243   1.083       .  S
C2240      H2244   1.083       .  S
C2245      C2246   1.408       .  A
C2245      C2250   1.399       .  A
C2245      H2255   1.082       .  S
C2246      C2251   1.488       .  S
C2246      C2247   1.405       .  A
C2247      C2248   1.396       .  A
C2247      H2252   1.083       .  S
C2248      C2249   1.406       .  A
C2248      H2253   1.083       .  S
C2249      C2250   1.404       .  A
C2250      H2254   1.083       .  S
C2251      C2256   1.403       .  A
C2251      C2260   1.409       .  A
C2256      C2257   1.394       .  A
C2256      H2261   1.083       .  S
C2257      C2258   1.408       .  A
C2257      H2262   1.083       .  S
C2258      C2259   1.404       .  A
C2259      C2260   1.400       .  A
C2259      H2263   1.083       .  S
C2260      H2264   1.083       .  S
C2265      C2266   1.403       .  A
C2265      C2270   1.394       .  A
C2265      H2275   1.083       .  S
C2266      C2271   1.486   1_556  S
C2266      C2267   1.409       .  A
C2267      C2268   1.400       .  A
C2267      H2272   1.083       .  S
C2268      C2269   1.404       .  A
C2268      H2273   1.083       .  S
C2269      C2270   1.408       .  A
C2270      H2274   1.083       .  S
C2271      C2276   1.405       .  A
C2271      C2280   1.409       .  A
C2276      C2277   1.395       .  A
C2276      H2281   1.083       .  S
C2277      C2278   1.404       .  A
C2277      H2282   1.083       .  S
C2278      C2279   1.403       .  A
C2279      C2280   1.399       .  A
C2279      H2283   1.083       .  S
C2280      H2284   1.083       .  S
C2285      C2286   1.403       .  A
C2285      C2290   1.398       .  A
C2285      H2295   1.083       .  S
C2286      C2291   1.476       .  S
C2286      C2287   1.402       .  A
C2287      C2288   1.397       .  A
C2287      H2292   1.083       .  S
C2288      C2289   1.407       .  A
C2288      H2293   1.083       .  S
C2289      C2290   1.406       .  A
C2290      H2294   1.083       .  S
C2291      C2296   1.401       .  A
C2291      C2300   1.404       .  A
C2296      C2297   1.395       .  A
C2296      H2301   1.083       .  S
C2297      C2298   1.407       .  A
C2297      H2302   1.083       .  S
C2298      C2299   1.406       .  A
C2299      C2300   1.400       .  A
C2299      H2303   1.083       .  S
C2300      H2304   1.083       .  S
C2305      C2306   1.401       .  A
C2305      C2310   1.394       .  A
C2305      H2315   1.083       .  S
C2306      C2311   1.488       .  S
C2306      C2307   1.411       .  A
C2307      C2308   1.405       .  A
C2307      H2312   1.083       .  S
C2308      C2309   1.404       .  A
C2308      H2313   1.083       .  S
C2309      C2310   1.408       .  A
C2310      H2314   1.083       .  S
C2311      C2316   1.402       .  A
C2311      C2320   1.412       .  A
C2316      C2317   1.394       .  A
C2316      H2321   1.083       .  S
C2317      C2318   1.406       .  A
C2317      H2322   1.083       .  S
C2318      C2319   1.403       .  A
C2319      C2320   1.406       .  A
C2319      H2323   1.083       .  S
C2320      H2324   1.083       .  S
C2325      C2326   1.405       .  A
C2325      C2330   1.400       .  A
C2325      H2335   1.083       .  S
C2326      C2331   1.480       .  S
C2326      C2327   1.403       .  A
C2327      C2328   1.396       .  A
C2327      H2332   1.083       .  S
C2328      C2329   1.407       .  A
C2328      H2333   1.083       .  S
C2329      C2330   1.406       .  A
C2330      H2334   1.083       .  S
C2331      C2336   1.403       .  A
C2331      C2340   1.406       .  A
C2336      C2337   1.396       .  A
C2336      H2341   1.083       .  S
C2337      C2338   1.406       .  A
C2337      H2342   1.083       .  S
C2338      C2339   1.405       .  A
C2339      C2340   1.399       .  A
C2339      H2343   1.083       .  S
C2340      H2344   1.083       .  S
C2345      C2346   1.405       .  A
C2345      C2350   1.394       .  A
C2345      H2355   1.083       .  S
C2346      C2351   1.490       .  S
C2346      C2347   1.407       .  A
C2347      C2348   1.405       .  A
C2347      H2352   1.083       .  S
C2348      C2349   1.408       .  A
C2348      H2353   1.083       .  S
C2349      C2350   1.405       .  A
C2350      H2354   1.083       .  S
C2351      C2356   1.406       .  A
C2351      C2360   1.407       .  A
C2356      C2357   1.395       .  A
C2356      H2361   1.083       .  S
C2357      C2358   1.404       .  A
C2357      H2362   1.083       .  S
C2358      C2359   1.408       .  A
C2359      C2360   1.404       .  A
C2359      H2363   1.083       .  S
C2360      H2364   1.083       .  S
C2365      C2366   1.410       .  A
C2365      C2370   1.403       .  A
C2365      H2375   1.083       .  S
C2366      C2371   1.483       .  S
C2366      C2367   1.401       .  A
C2367      C2368   1.394       .  A
C2367      H2372   1.083       .  S
C2368      C2369   1.408       .  A
C2368      H2373   1.083       .  S
C2369      C2370   1.403       .  A
C2370      H2374   1.083       .  S
C2371      C2376   1.409       .  A
C2371      C2380   1.400       .  A
C2376      C2377   1.405       .  A
C2376      H2381   1.083       .  S
C2377      C2378   1.405       .  A
C2377      H2382   1.083       .  S
C2378      C2379   1.406       .  A
C2379      C2380   1.392       .  A
C2379      H2383   1.083   1_554  S
C2380      H2384   1.083       .  S
C2385      C2386   1.407       .  A
C2385      C2390   1.398       .  A
C2385      H2395   1.083       .  S
C2386      C2391   1.486       .  S
C2386      C2387   1.404       .  A
C2387      C2388   1.396       .  A
C2387      H2392   1.083       .  S
C2388      C2389   1.407       .  A
C2388      H2393   1.083       .  S
C2389      C2390   1.405       .  A
C2390      H2394   1.083       .  S
C2391      C2396   1.402       .  A
C2391      C2400   1.409       .  A
C2396      C2397   1.393       .  A
C2396      H2401   1.083       .  S
C2397      C2398   1.409       .  A
C2397      H2402   1.083       .  S
C2398      C2399   1.404       .  A
C2399      C2400   1.401       .  A
C2399      H2403   1.083       .  S
C2400      H2404   1.083       .  S
C2405      C2406   1.410       .  A
C2405      C2410   1.402       .  A
C2405      H2415   1.082       .  S
C2406      C2411   1.487       .  S
C2406      C2407   1.402       .  A
C2407      C2408   1.392       .  A
C2407      H2412   1.083       .  S
C2408      C2409   1.408       .  A
C2408      H2413   1.083       .  S
C2409      C2410   1.404       .  A
C2410      H2414   1.083       .  S
C2411      C2416   1.404       .  A
C2411      C2420   1.408       .  A
C2416      C2417   1.397       .  A
C2416      H2421   1.083       .  S
C2417      C2418   1.408       .  A
C2417      H2422   1.083       .  S
C2418      C2419   1.404       .  A
C2419      C2420   1.398       .  A
C2419      H2423   1.083       .  S
C2420      H2424   1.082       .  S
C2425      C2426   1.401       .  A
C2425      C2430   1.395       .  A
C2425      H2435   1.083       .  S
C2426      C2431   1.477       .  S
C2426      C2427   1.405       .  A
C2427      C2428   1.400       .  A
C2427      H2432   1.083       .  S
C2428      C2429   1.406       .  A
C2428      H2433   1.083       .  S
C2429      C2430   1.407       .  A
C2430      H2434   1.083       .  S
C2431      C2436   1.405       .  A
C2431      C2440   1.401       .  A
C2436      C2437   1.399       .  A
C2436      H2441   1.083       .  S
C2437      C2438   1.404       .  A
C2437      H2442   1.083       .  S
C2438      C2439   1.406       .  A
C2439      C2440   1.395       .  A
C2439      H2443   1.083       .  S
C2440      H2444   1.083       .  S
C2445      C2446   1.406       .  A
C2445      C2450   1.396       .  A
C2445      H2455   1.083       .  S
C2446      C2451   1.490       .  S
C2446      C2447   1.407       .  A
C2447      C2448   1.403       .  A
C2447      H2452   1.083       .  S
C2448      C2449   1.407       .  A
C2448      H2453   1.083       .  S
C2449      C2450   1.405       .  A
C2450      H2454   1.083       .  S
C2451      C2456   1.406       .  A
C2451      C2460   1.407       .  A
C2456      C2457   1.396       .  A
C2456      H2461   1.083       .  S
C2457      C2458   1.405       .  A
C2457      H2462   1.083       .  S
C2458      C2459   1.407       .  A
C2459      C2460   1.403       .  A
C2459      H2463   1.083       .  S
C2460      H2464   1.083       .  S
C2465      C2466   1.408       .  A
C2465      C2470   1.398       .  A
C2465      H2475   1.082       .  S
C2466      C2471   1.497       .  S
C2466      C2467   1.408       .  A
C2467      C2468   1.403       .  A
C2467      H2472   1.082       .  S
C2468      C2469   1.408       .  A
C2468      H2473   1.083       .  S
C2469      C2470   1.406       .  A
C2470      H2474   1.083       .  S
C2471      C2476   1.406       .  A
C2471      C2480   1.410       .  A
C2476      C2477   1.396       .  A
C2476      H2481   1.082       .  S
C2477      C2478   1.407       .  A
C2477      H2482   1.083       .  S
C2478      C2479   1.407       .  A
C2479      C2480   1.405       .  A
C2479      H2483   1.083       .  S
C2480      H2484   1.082       .  S
C2485      C2486   1.409       .  A
C2485      C2490   1.402       .  A
C2485      H2495   1.082       .  S
C2486      C2491   1.495       .  S
C2486      C2487   1.407       .  A
C2487      C2488   1.398       .  A
C2487      H2492   1.082       .  S
C2488      C2489   1.406       .  A
C2488      H2493   1.083       .  S
C2489      C2490   1.407       .  A
C2490      H2494   1.083       .  S
C2491      C2496   1.408       .  A
C2491      C2500   1.407       .  A
C2496      C2497   1.402       .  A
C2496      H2501   1.082       .  S
C2497      C2498   1.407       .  A
C2497      H2502   1.083       .  S
C2498      C2499   1.407       .  A
C2499      C2500   1.398       .  A
C2499      H2503   1.083       .  S
C2500      H2504   1.082       .  S
C2505      C2506   1.403       .  A
C2505      C2510   1.398       .  A
C2505      H2515   1.083       .  S
C2506      C2511   1.486       .  S
C2506      C2507   1.408       .  A
C2507      C2508   1.397       .  A
C2507      H2512   1.083       .  S
C2508      C2509   1.404       .  A
C2508      H2513   1.083       .  S
C2509      C2510   1.409       .  A
C2510      H2514   1.083       .  S
C2511      C2516   1.410       .  A
C2511      C2520   1.401       .  A
C2516      C2517   1.404       .  A
C2516      H2521   1.083       .  S
C2517      C2518   1.405       .  A
C2517      H2522   1.083       .  S
C2518      C2519   1.408       .  A
C2519      C2520   1.390       .  A
C2519      H2523   1.083       .  S
C2520      H2524   1.083       .  S
C2525      C2526   1.409       .  A
C2525      C2530   1.399       .  A
C2525      H2535   1.082       .  S
C2526      C2531   1.489       .  S
C2526      C2527   1.404       .  A
C2527      C2528   1.397       .  A
C2527      H2532   1.083       .  S
C2528      C2529   1.409       .  A
C2528      H2533   1.083       .  S
C2529      C2530   1.404       .  A
C2530      H2534   1.083       .  S
C2531      C2536   1.402       .  A
C2531      C2540   1.410       .  A
C2536      C2537   1.393       .  A
C2536      H2541   1.083       .  S
C2537      C2538   1.409       .  A
C2537      H2542   1.083       .  S
C2538      C2539   1.405       .  A
C2539      C2540   1.403       .  A
C2539      H2543   1.083       .  S
C2540      H2544   1.083       .  S
C2545      C2546   1.406       .  A
C2545      C2550   1.395       .  A
C2545      H2555   1.083       .  S
C2546      C2551   1.496       .  S
C2546      C2547   1.409       .  A
C2547      C2548   1.407       .  A
C2547      H2552   1.082       .  S
C2548      C2549   1.408       .  A
C2548      H2553   1.083       .  S
C2549      C2550   1.407       .  A
C2550      H2554   1.083       .  S
C2551      C2556   1.405       .  A
C2551      C2560   1.410       .  A
C2556      C2557   1.393       .  A
C2556      H2561   1.083       .  S
C2557      C2558   1.408       .  A
C2557      H2562   1.083       .  S
C2558      C2559   1.408       .  A
C2559      C2560   1.409       .  A
C2559      H2563   1.083       .  S
C2560      H2564   1.082       .  S
C2565      C2566   1.405       .  A
C2565      C2570   1.398       .  A
C2565      H2575   1.083       .  S
C2566      C2571   1.487       .  S
C2566      C2567   1.407       .  A
C2567      C2568   1.397       .  A
C2567      H2572   1.083       .  S
C2568      C2569   1.404       .  A
C2568      H2573   1.083       .  S
C2569      C2570   1.407       .  A
C2570      H2574   1.083       .  S
C2571      C2576   1.408       .  A
C2571      C2580   1.404       .  A
C2576      C2577   1.400       .  A
C2576      H2581   1.083       .  S
C2577      C2578   1.406       .  A
C2577      H2582   1.083       .  S
C2578      C2579   1.407       .  A
C2579      C2580   1.394       .  A
C2579      H2583   1.083       .  S
C2580      H2584   1.083       .  S
C2585      C2586   1.410       .  A
C2585      C2590   1.403       .  A
C2585      H2595   1.082       .  S
C2586      C2591   1.489       .  S
C2586      C2587   1.403       .  A
C2587      C2588   1.392       .  A
C2587      H2592   1.082       .  S
C2588      C2589   1.407       .  A
C2588      H2593   1.083       .  S
C2589      C2590   1.406       .  A
C2590      H2594   1.083       .  S
C2591      C2596   1.405       .  A
C2591      C2600   1.408       .  A
C2596      C2597   1.398       .  A
C2596      H2601   1.083       .  S
C2597      C2598   1.408       .  A
C2597      H2602   1.083       .  S
C2598      C2599   1.404       .  A
C2599      C2600   1.397       .  A
C2599      H2603   1.083       .  S
C2600      H2604   1.082       .  S
C2605      C2606   1.404       .  A
C2605      C2610   1.392       .  A
C2605      H2615   1.083       .  S
C2606      C2611   1.490       .  S
C2606      C2607   1.409       .  A
C2607      C2608   1.406       .  A
C2607      H2612   1.083       .  S
C2608      C2609   1.407       .  A
C2608      H2613   1.083       .  S
C2609      C2610   1.407       .  A
C2610      H2614   1.083       .  S
C2611      C2616   1.405       .  A
C2611      C2620   1.407       .  A
C2616      C2617   1.394       .  A
C2616      H2621   1.083       .  S
C2617      C2618   1.407       .  A
C2617      H2622   1.083       .  S
C2618      C2619   1.408       .  A
C2619      C2620   1.405       .  A
C2619      H2623   1.083       .  S
C2620      H2624   1.083       .  S
C2625      C2626   1.406       .  A
C2625      C2630   1.399       .  A
C2625      H2635   1.083       .  S
C2626      C2631   1.490       .  S
C2626      C2627   1.406       .  A
C2627      C2628   1.399       .  A
C2627      H2632   1.083       .  S
C2628      C2629   1.406       .  A
C2628      H2633   1.083       .  S
C2629      C2630   1.407       .  A
C2630      H2634   1.083       .  S
C2631      C2636   1.405       .  A
C2631      C2640   1.408       .  A
C2636      C2637   1.397       .  A
C2636      H2641   1.083       .  S
C2637      C2638   1.408       .  A
C2637      H2642   1.083       .  S
C2638      C2639   1.406       .  A
C2639      C2640   1.400       .  A
C2639      H2643   1.083       .  S
C2640      H2644   1.083       .  S
C2645      C2646   1.408       .  A
C2645      C2650   1.401       .  A
C2645      H2655   1.083       .  S
C2646      C2651   1.485       .  S
C2646      C2647   1.403       .  A
C2647      C2648   1.397       .  A
C2647      H2652   1.083       .  S
C2648      C2649   1.407       .  A
C2648      H2653   1.083       .  S
C2649      C2650   1.404       .  A
C2650      H2654   1.083       .  S
C2651      C2656   1.408       .  A
C2651      C2660   1.402       .  A
C2656      C2657   1.403       .  A
C2656      H2661   1.083       .  S
C2657      C2658   1.406       .  A
C2657      H2662   1.083       .  S
C2658      C2659   1.407       .  A
C2659      C2660   1.394       .  A
C2659      H2663   1.083       .  S
C2660      H2664   1.083       .  S
C2665      C2666   1.409       .  A
C2665      C2670   1.402       .  A
C2665      H2675   1.082       .  S
C2666      C2671   1.497       .  S
C2666      C2667   1.407       .  A
C2667      C2668   1.399       .  A
C2667      H2672   1.082       .  S
C2668      C2669   1.407       .  A
C2668      H2673   1.083       .  S
C2669      C2670   1.406       .  A
C2670      H2674   1.083       .  S
C2671      C2676   1.408       .  A
C2671      C2680   1.408       .  A
C2676      C2677   1.401       .  A
C2676      H2681   1.082       .  S
C2677      C2678   1.407       .  A
C2677      H2682   1.083       .  S
C2678      C2679   1.407       .  A
C2679      C2680   1.400       .  A
C2679      H2683   1.083       .  S
C2680      H2684   1.082       .  S
C2685      C2686   1.405       .  A
C2685      C2690   1.398       .  A
C2685      H2695   1.082       .  S
C2686      C2691   1.491       .  S
C2686      C2687   1.409       .  A
C2687      C2688   1.399       .  A
C2687      H2692   1.082       .  S
C2688      C2689   1.405       .  A
C2688      H2693   1.083       .  S
C2689      C2690   1.407       .  A
C2690      H2694   1.083       .  S
C2691      C2696   1.411       .  A
C2691      C2700   1.403       .  A
C2696      C2697   1.403       .  A
C2696      H2701   1.082       .  S
C2697      C2698   1.405       .  A
C2697      H2702   1.083       .  S
C2698      C2699   1.409       .  A
C2699      C2700   1.392       .  A
C2699      H2703   1.083       .  S
C2700      H2704   1.082       .  S
C2705      C2706   1.403       .  A
C2705      C2710   1.392       .  A
C2705      H2715   1.083       .  S
C2706      C2711   1.487       .  S
C2706      C2707   1.409       .  A
C2707      C2708   1.403       .  A
C2707      H2712   1.083       .  S
C2708      C2709   1.405       .  A
C2708      H2713   1.083       .  S
C2709      C2710   1.407       .  A
C2710      H2714   1.083       .  S
C2711      C2716   1.407       .  A
C2711      C2720   1.406       .  A
C2716      C2717   1.395       .  A
C2716      H2721   1.083       .  S
C2717      C2718   1.404       .  A
C2717      H2722   1.083       .  S
C2718      C2719   1.407       .  A
C2719      C2720   1.399       .  A
C2719      H2723   1.083       .  S
C2720      H2724   1.083       .  S
C2725      C2726   1.407       .  A
C2725      C2730   1.400       .  A
C2725      H2735   1.083       .  S
C2726      C2731   1.484       .  S
C2726      C2727   1.403       .  A
C2727      C2728   1.397       .  A
C2727      H2732   1.083       .  S
C2728      C2729   1.407       .  A
C2728      H2733   1.083       .  S
C2729      C2730   1.405       .  A
C2730      H2734   1.083       .  S
C2731      C2736   1.408       .  A
C2731      C2740   1.402       .  A
C2736      C2737   1.402       .  A
C2736      H2741   1.083       .  S
C2737      C2738   1.405       .  A
C2737      H2742   1.083       .  S
C2738      C2739   1.407       .  A
C2739      C2740   1.395       .  A
C2739      H2743   1.083   1_554  S
C2740      H2744   1.083   1_554  S
C2745      C2746   1.403       .  A
C2745      C2750   1.397       .  A
C2745      H2755   1.083       .  S
C2746      C2751   1.486       .  S
C2746      C2747   1.406       .  A
C2747      C2748   1.404       .  A
C2747      H2752   1.083       .  S
C2748      C2749   1.407       .  A
C2748      H2753   1.083       .  S
C2749      C2750   1.407       .  A
C2750      H2754   1.083       .  S
C2751      C2756   1.404       .  A
C2751      C2760   1.406       .  A
C2756      C2757   1.398       .  A
C2756      H2761   1.083       .  S
C2757      C2758   1.407       .  A
C2757      H2762   1.083       .  S
C2758      C2759   1.407       .  A
C2759      C2760   1.404       .  A
C2759      H2763   1.083       .  S
C2760      H2764   1.083       .  S
C2765      C2766   1.404       .  A
C2765      C2770   1.392       .  A
C2765      H2775   1.083       .  S
C2766      C2771   1.489       .  S
C2766      C2767   1.408       .  A
C2767      C2768   1.407       .  A
C2767      H2772   1.083       .  S
C2768      C2769   1.408       .  A
C2768      H2773   1.083       .  S
C2769      C2770   1.407       .  A
C2770      H2774   1.083       .  S
C2771      C2776   1.404       .  A
C2771      C2780   1.408       .  A
C2776      C2777   1.392       .  A
C2776      H2781   1.083       .  S
C2777      C2778   1.407       .  A
C2777      H2782   1.083       .  S
C2778      C2779   1.408       .  A
C2779      C2780   1.407       .  A
C2779      H2783   1.083       .  S
C2780      H2784   1.083       .  S
C2785      C2786   1.405       .  A
C2785      C2790   1.397       .  A
C2785      H2795   1.083       .  S
C2786      C2791   1.488       .  S
C2786      C2787   1.408       .  A
C2787      C2788   1.397       .  A
C2787      H2792   1.082       .  S
C2788      C2789   1.404       .  A
C2788      H2793   1.083       .  S
C2789      C2790   1.407       .  A
C2790      H2794   1.083       .  S
C2791      C2796   1.409       .  A
C2791      C2800   1.403       .  A
C2796      C2797   1.401       .  A
C2796      H2801   1.083       .  S
C2797      C2798   1.405       .  A
C2797      H2802   1.083       .  S
C2798      C2799   1.408       .  A
C2799      C2800   1.393       .  A
C2799      H2803   1.083       .  S
C2800      H2804   1.083       .  S
C2805      C2806   1.402       .  A
C2805      C2810   1.392       .  A
C2805      H2815   1.083       .  S
C2806      C2811   1.486       .  S
C2806      C2807   1.409       .  A
C2807      C2808   1.402       .  A
C2807      H2812   1.083       .  S
C2808      C2809   1.406       .  A
C2808      H2813   1.083       .  S
C2809      C2810   1.407       .  A
C2810      H2814   1.083       .  S
C2811      C2816   1.407       .  A
C2811      C2820   1.405       .  A
C2816      C2817   1.396       .  A
C2816      H2821   1.083       .  S
C2817      C2818   1.404       .  A
C2817      H2822   1.083       .  S
C2818      C2819   1.407       .  A
C2819      C2820   1.398       .  A
C2819      H2823   1.083       .  S
C2820      H2824   1.083       .  S
C2825      C2826   1.407       .  A
C2825      C2830   1.404       .  A
C2825      H2835   1.083       .  S
C2826      C2831   1.486       .  S
C2826      C2827   1.404       .  A
C2827      C2828   1.396       .  A
C2827      H2832   1.083       .  S
C2828      C2829   1.406       .  A
C2828      H2833   1.083       .  S
C2829      C2830   1.406       .  A
C2830      H2834   1.083       .  S
C2831      C2836   1.406       .  A
C2831      C2840   1.404       .  A
C2836      C2837   1.403       .  A
C2836      H2841   1.083       .  S
C2837      C2838   1.406       .  A
C2837      H2842   1.083       .  S
C2838      C2839   1.406       .  A
C2839      C2840   1.397       .  A
C2839      H2843   1.083       .  S
C2840      H2844   1.083       .  S
C2845      C2846   1.403       .  A
C2845      C2850   1.394       .  A
C2845      H2855   1.083       .  S
C2846      C2851   1.485       .  S
C2846      C2847   1.406       .  A
C2847      C2848   1.403       .  A
C2847      H2852   1.083       .  S
C2848      C2849   1.408       .  A
C2848      H2853   1.083       .  S
C2849      C2850   1.407       .  A
C2850      H2854   1.083       .  S
C2851      C2856   1.403       .  A
C2851      C2860   1.406       .  A
C2856      C2857   1.394       .  A
C2856      H2861   1.083       .  S
C2857      C2858   1.408       .  A
C2857      H2862   1.083       .  S
C2858      C2859   1.407       .  A
C2859      C2860   1.403       .  A
C2859      H2863   1.083       .  S
C2860      H2864   1.083       .  S
C2865      C2866   1.408       .  A
C2865      C2870   1.400       .  A
C2865      H2875   1.082       .  S
C2866      C2871   1.496   1_556  S
C2866      C2867   1.408       .  A
C2867      C2868   1.401       .  A
C2867      H2872   1.082   1_556  S
C2868      C2869   1.407       .  A
C2868      H2873   1.083       .  S
C2869      C2870   1.406       .  A
C2870      H2874   1.083       .  S
C2871      C2876   1.409       .  A
C2871      C2880   1.407       .  A
C2876      C2877   1.401       .  A
C2876      H2881   1.082       .  S
C2877      C2878   1.406       .  A
C2877      H2882   1.083       .  S
C2878      C2879   1.409       .  A
C2879      C2880   1.400       .  A
C2879      H2883   1.083       .  S
C2880      H2884   1.082   1_554  S
C2885      C2886   1.407       .  A
C2885      C2890   1.402       .  A
C2885      H2895   1.083       .  S
C2886      C2891   1.479       .  S
C2886      C2887   1.400       .  A
C2887      C2888   1.392       .  A
C2887      H2892   1.083       .  S
C2888      C2889   1.407       .  A
C2888      H2893   1.083       .  S
C2889      C2890   1.405       .  A
C2890      H2894   1.083       .  S
C2891      C2896   1.400       .  A
C2891      C2900   1.408       .  A
C2896      C2897   1.394       .  A
C2896      H2901   1.083       .  S
C2897      C2898   1.407       .  A
C2897      H2902   1.083   1_556  S
C2898      C2899   1.402       .  A
C2899      C2900   1.401       .  A
C2899      H2903   1.083       .  S
C2900      H2904   1.083       .  S
C2905      C2906   1.407       .  A
C2905      C2910   1.400       .  A
C2905      H2915   1.083       .  S
C2906      C2911   1.495       .  S
C2906      C2907   1.408       .  A
C2907      C2908   1.401       .  A
C2907      H2912   1.082       .  S
C2908      C2909   1.407       .  A
C2908      H2913   1.083       .  S
C2909      C2910   1.407       .  A
C2910      H2914   1.083       .  S
C2911      C2916   1.409       .  A
C2911      C2920   1.406       .  A
C2916      C2917   1.402       .  A
C2916      H2921   1.083       .  S
C2917      C2918   1.406       .  A
C2917      H2922   1.083       .  S
C2918      C2919   1.408       .  A
C2919      C2920   1.399       .  A
C2919      H2923   1.083       .  S
C2920      H2924   1.082       .  S
C2925      C2926   1.402       .  A
C2925      C2930   1.394       .  A
C2925      H2935   1.083       .  S
C2926      C2931   1.486       .  S
C2926      C2927   1.410       .  A
C2927      C2928   1.402       .  A
C2927      H2932   1.083       .  S
C2928      C2929   1.403       .  A
C2928      H2933   1.083       .  S
C2929      C2930   1.406       .  A
C2930      H2934   1.083       .  S
C2931      C2936   1.410       .  A
C2931      C2940   1.402       .  A
C2936      C2937   1.402       .  A
C2936      H2941   1.083       .  S
C2937      C2938   1.403       .  A
C2937      H2942   1.083       .  S
C2938      C2939   1.407       .  A
C2939      C2940   1.394       .  A
C2939      H2943   1.083       .  S
C2940      H2944   1.083       .  S
C2945      C2946   1.404       .  A
C2945      C2950   1.393       .  A
C2945      H2955   1.082       .  S
C2946      C2951   1.489       .  S
C2946      C2947   1.409       .  A
C2947      C2948   1.401       .  A
C2947      H2952   1.082       .  S
C2948      C2949   1.405       .  A
C2948      H2953   1.083       .  S
C2949      C2950   1.408       .  A
C2950      H2954   1.083       .  S
C2951      C2956   1.408       .  A
C2951      C2960   1.406       .  A
C2956      C2957   1.397       .  A
C2956      H2961   1.082       .  S
C2957      C2958   1.405       .  A
C2957      H2962   1.083       .  S
C2958      C2959   1.406       .  A
C2959      C2960   1.398       .  A
C2959      H2963   1.083       .  S
C2960      H2964   1.082       .  S
C2965      C2966   1.404       .  A
C2965      C2970   1.397       .  A
C2965      H2975   1.083       .  S
C2966      C2971   1.486       .  S
C2966      C2967   1.408       .  A
C2967      C2968   1.397       .  A
C2967      H2972   1.083       .  S
C2968      C2969   1.404       .  A
C2968      H2973   1.083       .  S
C2969      C2970   1.408       .  A
C2970      H2974   1.083       .  S
C2971      C2976   1.409       .  A
C2971      C2980   1.402       .  A
C2976      C2977   1.402       .  A
C2976      H2981   1.083       .  S
C2977      C2978   1.405       .  A
C2977      H2982   1.083       .  S
C2978      C2979   1.407       .  A
C2979      C2980   1.391       .  A
C2979      H2983   1.083       .  S
C2980      H2984   1.083       .  S
C2985      C2986   1.408       .  A
C2985      C2990   1.401       .  A
C2985      H2995   1.083       .  S
C2986      C2991   1.479       .  S
C2986      C2987   1.400       .  A
C2987      C2988   1.393       .  A
C2987      H2992   1.083       .  S
C2988      C2989   1.406       .  A
C2988      H2993   1.083       .  S
C2989      C2990   1.403       .  A
C2990      H2994   1.083       .  S
C2991      C2996   1.400       .  A
C2991      C3000   1.408       .  A
C2996      C2997   1.391       .  A
C2996      H3001   1.083       .  S
C2997      C2998   1.406       .  A
C2997      H3002   1.083       .  S
C2998      C2999   1.404       .  A
C2999      C3000   1.402       .  A
C2999      H3003   1.083       .  S
C3000      H3004   1.083       .  S
C3005      C3006   1.403       .  A
C3005      C3010   1.390       .  A
C3005      H3015   1.083       .  S
C3006      C3011   1.486       .  S
C3006      C3007   1.407       .  A
C3007      C3008   1.407       .  A
C3007      H3012   1.083       .  S
C3008      C3009   1.409       .  A
C3008      H3013   1.083       .  S
C3009      C3010   1.406       .  A
C3010      H3014   1.083       .  S
C3011      C3016   1.404       .  A
C3011      C3020   1.407       .  A
C3016      C3017   1.391       .  A
C3016      H3021   1.083       .  S
C3017      C3018   1.404       .  A
C3017      H3022   1.083       .  S
C3018      C3019   1.408       .  A
C3019      C3020   1.405       .  A
C3019      H3023   1.083       .  S
C3020      H3024   1.083       .  S
C3025      C3026   1.401       .  A
C3025      C3030   1.395       .  A
C3025      H3035   1.083       .  S
C3026      C3031   1.483       .  S
C3026      C3027   1.409       .  A
C3027      C3028   1.402       .  A
C3027      H3032   1.083       .  S
C3028      C3029   1.403       .  A
C3028      H3033   1.083       .  S
C3029      C3030   1.407       .  A
C3030      H3034   1.083       .  S
C3031      C3036   1.408       .  A
C3031      C3040   1.401       .  A
C3036      C3037   1.403       .  A
C3036      H3041   1.083       .  S
C3037      C3038   1.405       .  A
C3037      H3042   1.083       .  S
C3038      C3039   1.408       .  A
C3039      C3040   1.393       .  A
C3039      H3043   1.083       .  S
C3040      H3044   1.083       .  S
C3045      C3046   1.406       .  A
C3045      C3050   1.396       .  A
C3045      H3055   1.082       .  S
C3046      C3051   1.489   1_554  S
C3046      C3047   1.409       .  A
C3047      C3048   1.399       .  A
C3047      H3052   1.082       .  S
C3048      C3049   1.404       .  A
C3048      H3053   1.083       .  S
C3049      C3050   1.405       .  A
C3050      H3054   1.083       .  S
C3051      C3056   1.405       .  A
C3051      C3060   1.410       .  A
C3056      C3057   1.394       .  A
C3056      H3061   1.082       .  S
C3057      C3058   1.406       .  A
C3057      H3062   1.083       .  S
C3058      C3059   1.404       .  A
C3059      C3060   1.400       .  A
C3059      H3063   1.083       .  S
C3060      H3064   1.082       .  S
C3065      C3066   1.403       .  A
C3065      C3070   1.395       .  A
C3065      H3075   1.083       .  S
C3066      C3071   1.488       .  S
C3066      C3067   1.409       .  A
C3067      C3068   1.400       .  A
C3067      H3072   1.083       .  S
C3068      C3069   1.405       .  A
C3068      H3073   1.083       .  S
C3069      C3070   1.408       .  A
C3070      H3074   1.083       .  S
C3071      C3076   1.408       .  A
C3071      C3080   1.405       .  A
C3076      C3077   1.399       .  A
C3076      H3081   1.083       .  S
C3077      C3078   1.405       .  A
C3077      H3082   1.083       .  S
C3078      C3079   1.406       .  A
C3079      C3080   1.396       .  A
C3079      H3083   1.083       .  S
C3080      H3084   1.083       .  S
C3085      C3086   1.406       .  A
C3085      C3090   1.407       .  A
C3085      H3095   1.083       .  S
C3086      C3091   1.484       .  S
C3086      C3087   1.403       .  A
C3087      C3088   1.390       .  A
C3087      H3092   1.083       .  S
C3088      C3089   1.405       .  A
C3088      H3093   1.083       .  S
C3089      C3090   1.410       .  A
C3090      H3094   1.083       .  S
C3091      C3096   1.407       .  A
C3091      C3100   1.402       .  A
C3096      C3097   1.408       .  A
C3096      H3101   1.083       .  S
C3097      C3098   1.409       .  A
C3097      H3102   1.083       .  S
C3098      C3099   1.405       .  A
C3099      C3100   1.390       .  A
C3099      H3103   1.083       .  S
C3100      H3104   1.083       .  S
C3105      C3106   1.410       .  A
C3105      C3110   1.404       .  A
C3105      H3115   1.083       .  S
C3106      C3111   1.487       .  S
C3106      C3107   1.401       .  A
C3107      C3108   1.396       .  A
C3107      H3112   1.083       .  S
C3108      C3109   1.409       .  A
C3108      H3113   1.083       .  S
C3109      C3110   1.403       .  A
C3110      H3114   1.083       .  S
C3111      C3116   1.401       .  A
C3111      C3120   1.410       .  A
C3116      C3117   1.394       .  A
C3116      H3121   1.083       .  S
C3117      C3118   1.408       .  A
C3117      H3122   1.083   1_556  S
C3118      C3119   1.405       .  A
C3119      C3120   1.406       .  A
C3119      H3123   1.083       .  S
C3120      H3124   1.083       .  S
C3125      C3126   1.400       .  A
C3125      C3130   1.395       .  A
C3125      H3135   1.083       .  S
C3126      C3131   1.476       .  S
C3126      C3127   1.404       .  A
C3127      C3128   1.402       .  A
C3127      H3132   1.083       .  S
C3128      C3129   1.406       .  A
C3128      H3133   1.083       .  S
C3129      C3130   1.409       .  A
C3130      H3134   1.083       .  S
C3131      C3136   1.401       .  A
C3131      C3140   1.403       .  A
C3136      C3137   1.396       .  A
C3136      H3141   1.083       .  S
C3137      C3138   1.406       .  A
C3137      H3142   1.083       .  S
C3138      C3139   1.407       .  A
C3139      C3140   1.401       .  A
C3139      H3143   1.083       .  S
C3140      H3144   1.083       .  S
C3145      C3146   1.409       .  A
C3145      C3150   1.404       .  A
C3145      H3155   1.083       .  S
C3146      C3151   1.482       .  S
C3146      C3147   1.401       .  A
C3147      C3148   1.394       .  A
C3147      H3152   1.083       .  S
C3148      C3149   1.406       .  A
C3148      H3153   1.083       .  S
C3149      C3150   1.403       .  A
C3150      H3154   1.083       .  S
C3151      C3156   1.401       .  A
C3151      C3160   1.408       .  A
C3156      C3157   1.394       .  A
C3156      H3161   1.083       .  S
C3157      C3158   1.409       .  A
C3157      H3162   1.083       .  S
C3158      C3159   1.405       .  A
C3159      C3160   1.403       .  A
C3159      H3163   1.083       .  S
C3160      H3164   1.083       .  S
C3165      C3166   1.409   1_565  A
C3165      C3170   1.402       .  A
C3165      H3175   1.083       .  S
C3166      C3171   1.487       .  S
C3166      C3167   1.402       .  A
C3167      C3168   1.391       .  A
C3167      H3172   1.083       .  S
C3168      C3169   1.407       .  A
C3168      H3173   1.083       .  S
C3169      C3170   1.406   1_545  A
C3170      H3174   1.083       .  S
C3171      C3176   1.405   1_545  A
C3171      C3180   1.408       .  A
C3176      C3177   1.397       .  A
C3176      H3181   1.083       .  S
C3177      C3178   1.406   1_565  A
C3177      H3182   1.083       .  S
C3178      C3179   1.403       .  A
C3179      C3180   1.396       .  A
C3179      H3183   1.083       .  S
C3180      H3184   1.083       .  S
C3185      C3186   1.403   1_565  A
C3185      C3190   1.395       .  A
C3185      H3195   1.083       .  S
C3186      C3191   1.485       .  S
C3186      C3187   1.408       .  A
C3187      C3188   1.397       .  A
C3187      H3192   1.083       .  S
C3188      C3189   1.404       .  A
C3188      H3193   1.083       .  S
C3189      C3190   1.407   1_545  A
C3190      H3194   1.083       .  S
C3191      C3196   1.409   1_545  A
C3191      C3200   1.401       .  A
C3196      C3197   1.402       .  A
C3196      H3201   1.083       .  S
C3197      C3198   1.405   1_565  A
C3197      H3202   1.083       .  S
C3198      C3199   1.408       .  A
C3199      C3200   1.391       .  A
C3199      H3203   1.083       .  S
C3200      H3204   1.083       .  S
C3205      C3206   1.403       .  A
C3205      C3210   1.402       .  A
C3205      H3215   1.083       .  S
C3206      C3211   1.473       .  S
C3206      C3207   1.399       .  A
C3207      C3208   1.397       .  A
C3207      H3212   1.083       .  S
C3208      C3209   1.409       .  A
C3208      H3213   1.083       .  S
C3209      C3210   1.407       .  A
C3210      H3214   1.083       .  S
C3211      C3216   1.402       .  A
C3211      C3220   1.401       .  A
C3216      C3217   1.400       .  A
C3216      H3221   1.083       .  S
C3217      C3218   1.408       .  A
C3217      H3222   1.083       .  S
C3218      C3219   1.408       .  A
C3219      C3220   1.398       .  A
C3219      H3223   1.083       .  S
C3220      H3224   1.083       .  S
C3225      C3226   1.408       .  A
C3225      C3230   1.401       .  A
C3225      H3235   1.083       .  S
C3226      C3231   1.494   1_545  S
C3226      C3227   1.408   1_545  A
C3227      C3228   1.400       .  A
C3227      H3232   1.082       .  S
C3228      C3229   1.406   1_565  A
C3228      H3233   1.083       .  S
C3229      C3230   1.407       .  A
C3230      H3234   1.083       .  S
C3231      C3236   1.409   1_565  A
C3231      C3240   1.406       .  A
C3236      C3237   1.402       .  A
C3236      H3241   1.082       .  S
C3237      C3238   1.407   1_545  A
C3237      H3242   1.083       .  S
C3238      C3239   1.408       .  A
C3239      C3240   1.399       .  A
C3239      H3243   1.083       .  S
C3240      H3244   1.082       .  S
C3245      C3246   1.408       .  A
C3245      C3250   1.402       .  A
C3245      H3255   1.083       .  S
C3246      C3251   1.480       .  S
C3246      C3247   1.400       .  A
C3247      C3248   1.394       .  A
C3247      H3252   1.083       .  S
C3248      C3249   1.407       .  A
C3248      H3253   1.083       .  S
C3249      C3250   1.403       .  A
C3250      H3254   1.083       .  S
C3251      C3256   1.400       .  A
C3251      C3260   1.408       .  A
C3256      C3257   1.393       .  A
C3256      H3261   1.083       .  S
C3257      C3258   1.409       .  A
C3257      H3262   1.083       .  S
C3258      C3259   1.405       .  A
C3259      C3260   1.403       .  A
C3259      H3263   1.083       .  S
C3260      H3264   1.083       .  S
C3265      C3266   1.403       .  A
C3265      C3270   1.395       .  A
C3265      H3275   1.083       .  S
C3266      C3271   1.473       .  S
C3266      C3267   1.403       .  A
C3267      C3268   1.397       .  A
C3267      H3272   1.083       .  S
C3268      C3269   1.405       .  A
C3268      H3273   1.083       .  S
C3269      C3270   1.403       .  A
C3270      H3274   1.083       .  S
C3271      C3276   1.400       .  A
C3271      C3280   1.404       .  A
C3276      C3277   1.393       .  A
C3276      H3281   1.083       .  S
C3277      C3278   1.407       .  A
C3277      H3282   1.083       .  S
C3278      C3279   1.405       .  A
C3279      C3280   1.399       .  A
C3279      H3283   1.083       .  S
C3280      H3284   1.083       .  S
C3285      C3286   1.403   1_565  A
C3285      C3290   1.389       .  A
C3285      H3295   1.083       .  S
C3286      C3291   1.486       .  S
C3286      C3287   1.408       .  A
C3287      C3288   1.407       .  A
C3287      H3292   1.083       .  S
C3288      C3289   1.409       .  A
C3288      H3293   1.083       .  S
C3289      C3290   1.405   1_545  A
C3290      H3294   1.083       .  S
C3291      C3296   1.403   1_545  A
C3291      C3300   1.407       .  A
C3296      C3297   1.389       .  A
C3296      H3301   1.083       .  S
C3297      C3298   1.405   1_565  A
C3297      H3302   1.083       .  S
C3298      C3299   1.409       .  A
C3299      C3300   1.406       .  A
C3299      H3303   1.083       .  S
C3300      H3304   1.083       .  S
C3305      C3306   1.406       .  A
C3305      C3310   1.399       .  A
C3305      H3315   1.083       .  S
C3306      C3311   1.491       .  S
C3306      C3307   1.407   1_565  A
C3307      C3308   1.400       .  A
C3307      H3312   1.083       .  S
C3308      C3309   1.407   1_545  A
C3308      H3313   1.083       .  S
C3309      C3310   1.408       .  A
C3310      H3314   1.083       .  S
C3311      C3316   1.406       .  A
C3311      C3320   1.408   1_565  A
C3316      C3317   1.398       .  A
C3316      H3321   1.083       .  S
C3317      C3318   1.406   1_565  A
C3317      H3322   1.083       .  S
C3318      C3319   1.406       .  A
C3319      C3320   1.400       .  A
C3319      H3323   1.083       .  S
C3320      H3324   1.083       .  S
C3325      C3326   1.409       .  A
C3325      C3330   1.406       .  A
C3325      H3335   1.083       .  S
C3326      C3331   1.482       .  S
C3326      C3327   1.399       .  A
C3327      C3328   1.393       .  A
C3327      H3332   1.083       .  S
C3328      C3329   1.408       .  A
C3328      H3333   1.083       .  S
C3329      C3330   1.406       .  A
C3330      H3334   1.083       .  S
C3331      C3336   1.401       .  A
C3331      C3340   1.408       .  A
C3336      C3337   1.397       .  A
C3336      H3341   1.083       .  S
C3337      C3338   1.409       .  A
C3337      H3342   1.083       .  S
C3338      C3339   1.404       .  A
C3339      C3340   1.402       .  A
C3339      H3343   1.083       .  S
C3340      H3344   1.083       .  S
C3345      C3346   1.403   1_565  A
C3345      C3350   1.395       .  A
C3345      H3355   1.083       .  S
C3346      C3351   1.487   1_556  S
C3346      C3347   1.408       .  A
C3347      C3348   1.401       .  A
C3347      H3352   1.083       .  S
C3348      C3349   1.406       .  A
C3348      H3353   1.083       .  S
C3349      C3350   1.408   1_545  A
C3350      H3354   1.083       .  S
C3351      C3356   1.410   1_545  A
C3351      C3360   1.403       .  A
C3356      C3357   1.401       .  A
C3356      H3361   1.083       .  S
C3357      C3358   1.404   1_565  A
C3357      H3362   1.083       .  S
C3358      C3359   1.408       .  A
C3359      C3360   1.394       .  A
C3359      H3363   1.083       .  S
C3360      H3364   1.083       .  S
C3365      C3366   1.406   1_565  A
C3365      C3370   1.398       .  A
C3365      H3375   1.082       .  S
C3366      C3371   1.488       .  S
C3366      C3367   1.407       .  A
C3367      C3368   1.396       .  A
C3367      H3372   1.082       .  S
C3368      C3369   1.405       .  A
C3368      H3373   1.083       .  S
C3369      C3370   1.406   1_545  A
C3370      H3374   1.083       .  S
C3371      C3376   1.409   1_545  A
C3371      C3380   1.403       .  A
C3376      C3377   1.401       .  A
C3376      H3381   1.082       .  S
C3377      C3378   1.405   1_565  A
C3377      H3382   1.083       .  S
C3378      C3379   1.407       .  A
C3379      C3380   1.391       .  A
C3379      H3383   1.083       .  S
C3380      H3384   1.082       .  S
C3385      C3386   1.405       .  A
C3385      C3390   1.399       .  A
C3385      H3395   1.083       .  S
C3386      C3391   1.477       .  S
C3386      C3387   1.402       .  A
C3387      C3388   1.394       .  A
C3387      H3392   1.083       .  S
C3388      C3389   1.405       .  A
C3388      H3393   1.083       .  S
C3389      C3390   1.405       .  A
C3390      H3394   1.083       .  S
C3391      C3396   1.404       .  A
C3391      C3400   1.402       .  A
C3396      C3397   1.400       .  A
C3396      H3401   1.083       .  S
C3397      C3398   1.406       .  A
C3397      H3402   1.083       .  S
C3398      C3399   1.405       .  A
C3399      C3400   1.394       .  A
C3399      H3403   1.083       .  S
C3400      H3404   1.083       .  S
C3405      C3406   1.403   1_565  A
C3405      C3410   1.390       .  A
C3405      H3415   1.083       .  S
C3406      C3411   1.484       .  S
C3406      C3407   1.407       .  A
C3407      C3408   1.406       .  A
C3407      H3412   1.083       .  S
C3408      C3409   1.408       .  A
C3408      H3413   1.083       .  S
C3409      C3410   1.405   1_545  A
C3410      H3414   1.083       .  S
C3411      C3416   1.402   1_545  A
C3411      C3420   1.407       .  A
C3416      C3417   1.389       .  A
C3416      H3421   1.083       .  S
C3417      C3418   1.406   1_565  A
C3417      H3422   1.083       .  S
C3418      C3419   1.409       .  A
C3419      C3420   1.407       .  A
C3419      H3423   1.083       .  S
C3420      H3424   1.083       .  S
C3425      C3426   1.402       .  A
C3425      C3430   1.391       .  A
C3425      H3435   1.083       .  S
C3426      C3431   1.485       .  S
C3426      C3427   1.409   1_545  A
C3427      C3428   1.402       .  A
C3427      H3432   1.083       .  S
C3428      C3429   1.405   1_565  A
C3428      H3433   1.083       .  S
C3429      C3430   1.407       .  A
C3430      H3434   1.083       .  S
C3431      C3436   1.408       .  A
C3431      C3440   1.403   1_545  A
C3436      C3437   1.397       .  A
C3436      H3441   1.083       .  S
C3437      C3438   1.404   1_545  A
C3437      H3442   1.083       .  S
C3438      C3439   1.409       .  A
C3439      C3440   1.396       .  A
C3439      H3443   1.083       .  S
C3440      H3444   1.083       .  S
C3445      C3446   1.409   1_565  A
C3445      C3450   1.402       .  A
C3445      H3455   1.082       .  S
C3446      C3451   1.488   1_554  S
C3446      C3447   1.404       .  A
C3447      C3448   1.392       .  A
C3447      H3452   1.082       .  S
C3448      C3449   1.406       .  A
C3448      H3453   1.083       .  S
C3449      C3450   1.406   1_545  A
C3450      H3454   1.083       .  S
C3451      C3456   1.406   1_545  A
C3451      C3460   1.407       .  A
C3456      C3457   1.398       .  A
C3456      H3461   1.083       .  S
C3457      C3458   1.406   1_565  A
C3457      H3462   1.083       .  S
C3458      C3459   1.403       .  A
C3459      C3460   1.395       .  A
C3459      H3463   1.083       .  S
C3460      H3464   1.082       .  S
C3465      C3466   1.405       .  A
C3465      C3470   1.397       .  A
C3465      H3475   1.083       .  S
C3466      C3471   1.492   1_665  S
C3466      C3467   1.409   1_565  A
C3467      C3468   1.402       .  A
C3467      H3472   1.083       .  S
C3468      C3469   1.407   1_545  A
C3468      H3473   1.083       .  S
C3469      C3470   1.408       .  A
C3470      H3474   1.083       .  S
C3471      C3476   1.407   1_545  A
C3471      C3480   1.407       .  A
C3476      C3477   1.398       .  A
C3476      H3481   1.082       .  S
C3477      C3478   1.406   1_565  A
C3477      H3482   1.083       .  S
C3478      C3479   1.407       .  A
C3479      C3480   1.401       .  A
C3479      H3483   1.083       .  S
C3480      H3484   1.083       .  S
C3485      C3486   1.408   1_565  A
C3485      C3490   1.401       .  A
C3485      H3495   1.082       .  S
C3486      C3491   1.494       .  S
C3486      C3487   1.408       .  A
C3487      C3488   1.397       .  A
C3487      H3492   1.082       .  S
C3488      C3489   1.405       .  A
C3488      H3493   1.083       .  S
C3489      C3490   1.405   1_545  A
C3490      H3494   1.083       .  S
C3491      C3496   1.409   1_545  A
C3491      C3500   1.406       .  A
C3496      C3497   1.403       .  A
C3496      H3501   1.082       .  S
C3497      C3498   1.406   1_565  A
C3497      H3502   1.083       .  S
C3498      C3499   1.407       .  A
C3499      C3500   1.396       .  A
C3499      H3503   1.083       .  S
C3500      H3504   1.082       .  S
C3505      C3506   1.406   1_565  A
C3505      C3510   1.396       .  A
C3505      H3515   1.083   1_556  S
C3506      C3511   1.488   1_446  S
C3506      C3507   1.407       .  A
C3507      C3508   1.399       .  A
C3507      H3512   1.083       .  S
C3508      C3509   1.406       .  A
C3508      H3513   1.083       .  S
C3509      C3510   1.406   1_545  A
C3510      H3514   1.083       .  S
C3511      C3516   1.405       .  A
C3511      C3520   1.407   1_565  A
C3516      C3517   1.396       .  A
C3516      H3521   1.083   1_554  S
C3517      C3518   1.407       .  A
C3517      H3522   1.083       .  S
C3518      C3519   1.407   1_565  A
C3519      C3520   1.400       .  A
C3519      H3523   1.083       .  S
C3520      H3524   1.083       .  S
C3525      C3526   1.405       .  A
C3525      C3530   1.392       .  A
C3525      H3535   1.082       .  S
C3526      C3531   1.491       .  S
C3526      C3527   1.410   1_545  A
C3527      C3528   1.401       .  A
C3527      H3532   1.082       .  S
C3528      C3529   1.405   1_565  A
C3528      H3533   1.083       .  S
C3529      C3530   1.406       .  A
C3530      H3534   1.083       .  S
C3531      C3536   1.408       .  A
C3531      C3540   1.408   1_545  A
C3536      C3537   1.395       .  A
C3536      H3541   1.082       .  S
C3537      C3538   1.403       .  A
C3537      H3542   1.083       .  S
C3538      C3539   1.405   1_545  A
C3539      C3540   1.398       .  A
C3539      H3543   1.083       .  S
C3540      H3544   1.082       .  S
C3545      C3546   1.405   1_565  A
C3545      C3550   1.398       .  A
C3545      H3555   1.083       .  S
C3546      C3551   1.487       .  S
C3546      C3547   1.408       .  A
C3547      C3548   1.395       .  A
C3547      H3552   1.082       .  S
C3548      C3549   1.403   1_545  A
C3548      H3553   1.083       .  S
C3549      C3550   1.407       .  A
C3550      H3554   1.083       .  S
C3551      C3556   1.409   1_545  A
C3551      C3560   1.402       .  A
C3556      C3557   1.402       .  A
C3556      H3561   1.082       .  S
C3557      C3558   1.405   1_565  A
C3557      H3562   1.083       .  S
C3558      C3559   1.407       .  A
C3559      C3560   1.390       .  A
C3559      H3563   1.083       .  S
C3560      H3564   1.083       .  S
C3565      C3566   1.407       .  A
C3565      C3570   1.395       .  A
C3565      H3575   1.082       .  S
C3566      C3571   1.494       .  S
C3566      C3567   1.409   1_545  A
C3567      C3568   1.404       .  A
C3567      H3572   1.082       .  S
C3568      C3569   1.406   1_565  A
C3568      H3573   1.083       .  S
C3569      C3570   1.405       .  A
C3570      H3574   1.083       .  S
C3571      C3576   1.407       .  A
C3571      C3580   1.408   1_545  A
C3576      C3577   1.396       .  A
C3576      H3581   1.083       .  S
C3577      C3578   1.405       .  A
C3577      H3582   1.083       .  S
C3578      C3579   1.407   1_545  A
C3579      C3580   1.403       .  A
C3579      H3583   1.083       .  S
C3580      H3584   1.082       .  S
C3585      C3586   1.405       .  A
C3585      C3590   1.399       .  A
C3585      H3595   1.083       .  S
C3586      C3591   1.477       .  S
C3586      C3587   1.401       .  A
C3587      C3588   1.394       .  A
C3587      H3592   1.083       .  S
C3588      C3589   1.406       .  A
C3588      H3593   1.083       .  S
C3589      C3590   1.406       .  A
C3590      H3594   1.083       .  S
C3591      C3596   1.402       .  A
C3591      C3600   1.405       .  A
C3596      C3597   1.396       .  A
C3596      H3601   1.083       .  S
C3597      C3598   1.407       .  A
C3597      H3602   1.083       .  S
C3598      C3599   1.404       .  A
C3599      C3600   1.398       .  A
C3599      H3603   1.083       .  S
C3600      H3604   1.083       .  S
C3605      C3606   1.409       .  A
C3605      C3610   1.402       .  A
C3605      H3615   1.083       .  S
C3606      C3611   1.486       .  S
C3606      C3607   1.402       .  A
C3607      C3608   1.392       .  A
C3607      H3612   1.083       .  S
C3608      C3609   1.408       .  A
C3608      H3613   1.083       .  S
C3609      C3610   1.405       .  A
C3610      H3614   1.083       .  S
C3611      C3616   1.404       .  A
C3611      C3620   1.408       .  A
C3616      C3617   1.396       .  A
C3616      H3621   1.083       .  S
C3617      C3618   1.406       .  A
C3617      H3622   1.083       .  S
C3618      C3619   1.405       .  A
C3619      C3620   1.398       .  A
C3619      H3623   1.083       .  S
C3620      H3624   1.083       .  S
C3625      C3626   1.403       .  A
C3625      C3630   1.392       .  A
C3625      H3635   1.083       .  S
C3626      C3631   1.486       .  S
C3626      C3627   1.409       .  A
C3627      C3628   1.402       .  A
C3627      H3632   1.083       .  S
C3628      C3629   1.405       .  A
C3628      H3633   1.083       .  S
C3629      C3630   1.407       .  A
C3630      H3634   1.083       .  S
C3631      C3636   1.407       .  A
C3631      C3640   1.405       .  A
C3636      C3637   1.397       .  A
C3636      H3641   1.083       .  S
C3637      C3638   1.404       .  A
C3637      H3642   1.083       .  S
C3638      C3639   1.406       .  A
C3639      C3640   1.398       .  A
C3639      H3643   1.083       .  S
C3640      H3644   1.083       .  S
C3645      C3646   1.405       .  A
C3645      C3650   1.399       .  A
C3645      H3655   1.083       .  S
C3646      C3651   1.478       .  S
C3646      C3647   1.402       .  A
C3647      C3648   1.396       .  A
C3647      H3652   1.083       .  S
C3648      C3649   1.406       .  A
C3648      H3653   1.083       .  S
C3649      C3650   1.405       .  A
C3650      H3654   1.083       .  S
C3651      C3656   1.402       .  A
C3651      C3660   1.404       .  A
C3656      C3657   1.396       .  A
C3656      H3661   1.083       .  S
C3657      C3658   1.407       .  A
C3657      H3662   1.083       .  S
C3658      C3659   1.406       .  A
C3659      C3660   1.399       .  A
C3659      H3663   1.083       .  S
C3660      H3664   1.083       .  S
C3665      C3666   1.410       .  A
C3665      C3670   1.403       .  A
C3665      H3675   1.082       .  S
C3666      C3671   1.497   1_655  S
C3666      C3667   1.406       .  A
C3667      C3668   1.398       .  A
C3667      H3672   1.082       .  S
C3668      C3669   1.409       .  A
C3668      H3673   1.083       .  S
C3669      C3670   1.406       .  A
C3670      H3674   1.083       .  S
C3671      C3676   1.408       .  A
C3671      C3680   1.408       .  A
C3676      C3677   1.401       .  A
C3676      H3681   1.082       .  S
C3677      C3678   1.407       .  A
C3677      H3682   1.083       .  S
C3678      C3679   1.407       .  A
C3679      C3680   1.400       .  A
C3679      H3683   1.083       .  S
C3680      H3684   1.082       .  S
C3685      C3686   1.406       .  A
C3685      C3690   1.400       .  A
C3685      H3695   1.083       .  S
C3686      C3691   1.482       .  S
C3686      C3687   1.402       .  A
C3687      C3688   1.396       .  A
C3687      H3692   1.083       .  S
C3688      C3689   1.407       .  A
C3688      H3693   1.083       .  S
C3689      C3690   1.405       .  A
C3690      H3694   1.083       .  S
C3691      C3696   1.403       .  A
C3691      C3700   1.407       .  A
C3696      C3697   1.395       .  A
C3696      H3701   1.083       .  S
C3697      C3698   1.405       .  A
C3697      H3702   1.083       .  S
C3698      C3699   1.404       .  A
C3699      C3700   1.400       .  A
C3699      H3703   1.083       .  S
C3700      H3704   1.083       .  S
C3705      C3706   1.406       .  A
C3705      C3710   1.396       .  A
C3705      H3715   1.083       .  S
C3706      C3711   1.493       .  S
C3706      C3707   1.407       .  A
C3707      C3708   1.405       .  A
C3707      H3712   1.083       .  S
C3708      C3709   1.409       .  A
C3708      H3713   1.083       .  S
C3709      C3710   1.406       .  A
C3710      H3714   1.083       .  S
C3711      C3716   1.406       .  A
C3711      C3720   1.409       .  A
C3716      C3717   1.395       .  A
C3716      H3721   1.083       .  S
C3717      C3718   1.405       .  A
C3717      H3722   1.083       .  S
C3718      C3719   1.408       .  A
C3719      C3720   1.406       .  A
C3719      H3723   1.083       .  S
C3720      H3724   1.083       .  S
C3725      C3726   1.408       .  A
C3725      C3730   1.401       .  A
C3725      H3735   1.082       .  S
C3726      C3731   1.493   1_455  S
C3726      C3727   1.407       .  A
C3727      C3728   1.397       .  A
C3727      H3732   1.082       .  S
C3728      C3729   1.406       .  A
C3728      H3733   1.083       .  S
C3729      C3730   1.407       .  A
C3730      H3734   1.083       .  S
C3731      C3736   1.409       .  A
C3731      C3740   1.406       .  A
C3736      C3737   1.401       .  A
C3736      H3741   1.082       .  S
C3737      C3738   1.406       .  A
C3737      H3742   1.083       .  S
C3738      C3739   1.407       .  A
C3739      C3740   1.397       .  A
C3739      H3743   1.083       .  S
C3740      H3744   1.082       .  S
C3745      C3746   1.409       .  A
C3745      C3750   1.401       .  A
C3745      H3755   1.083       .  S
C3746      C3751   1.483       .  S
C3746      C3747   1.401       .  A
C3747      C3748   1.391       .  A
C3747      H3752   1.083       .  S
C3748      C3749   1.408       .  A
C3748      H3753   1.083       .  S
C3749      C3750   1.405       .  A
C3750      H3754   1.083       .  S
C3751      C3756   1.404       .  A
C3751      C3760   1.407       .  A
C3756      C3757   1.396       .  A
C3756      H3761   1.083       .  S
C3757      C3758   1.407       .  A
C3757      H3762   1.083       .  S
C3758      C3759   1.404       .  A
C3759      C3760   1.396       .  A
C3759      H3763   1.083       .  S
C3760      H3764   1.083       .  S
C3765      C3766   1.410       .  A
C3765      C3770   1.402       .  A
C3765      H3775   1.082       .  S
C3766      C3771   1.487   1_554  S
C3766      C3767   1.402       .  A
C3767      C3768   1.391       .  A
C3767      H3772   1.083       .  S
C3768      C3769   1.408       .  A
C3768      H3773   1.083       .  S
C3769      C3770   1.404       .  A
C3770      H3774   1.083       .  S
C3771      C3776   1.404       .  A
C3771      C3780   1.408       .  A
C3776      C3777   1.396       .  A
C3776      H3781   1.083       .  S
C3777      C3778   1.408       .  A
C3777      H3782   1.083       .  S
C3778      C3779   1.404       .  A
C3779      C3780   1.397       .  A
C3779      H3783   1.083       .  S
C3780      H3784   1.082       .  S
C3785      C3786   1.403       .  A
C3785      C3790   1.397       .  A
C3785      H3795   1.083       .  S
C3786      C3791   1.480       .  S
C3786      C3787   1.406       .  A
C3787      C3788   1.400       .  A
C3787      H3792   1.083       .  S
C3788      C3789   1.404       .  A
C3788      H3793   1.083       .  S
C3789      C3790   1.406       .  A
C3790      H3794   1.083       .  S
C3791      C3796   1.405       .  A
C3791      C3800   1.402       .  A
C3796      C3797   1.399       .  A
C3796      H3801   1.083       .  S
C3797      C3798   1.406       .  A
C3797      H3802   1.083       .  S
C3798      C3799   1.407       .  A
C3799      C3800   1.396       .  A
C3799      H3803   1.083       .  S
C3800      H3804   1.083       .  S
C3805      C3806   1.404       .  A
C3805      C3810   1.393       .  A
C3805      H3815   1.083       .  S
C3806      C3811   1.486       .  S
C3806      C3807   1.406       .  A
C3807      C3808   1.403       .  A
C3807      H3812   1.083       .  S
C3808      C3809   1.408       .  A
C3808      H3813   1.083       .  S
C3809      C3810   1.406       .  A
C3810      H3814   1.083       .  S
C3811      C3816   1.406       .  A
C3811      C3820   1.406       .  A
C3816      C3817   1.394       .  A
C3816      H3821   1.083       .  S
C3817      C3818   1.403       .  A
C3817      H3822   1.083       .  S
C3818      C3819   1.406       .  A
C3819      C3820   1.403       .  A
C3819      H3823   1.083       .  S
C3820      H3824   1.083       .  S
C3825      C3826   1.402       .  A
C3825      C3830   1.393       .  A
C3825      H3835   1.083       .  S
C3826      C3831   1.486       .  S
C3826      C3827   1.412       .  A
C3827      C3828   1.403       .  A
C3827      H3832   1.083       .  S
C3828      C3829   1.401       .  A
C3828      H3833   1.083       .  S
C3829      C3830   1.405       .  A
C3830      H3834   1.084       .  S
C3831      C3836   1.402       .  A
C3831      C3840   1.410       .  A
C3836      C3837   1.392       .  A
C3836      H3841   1.083       .  S
C3837      C3838   1.408       .  A
C3837      H3842   1.083       .  S
C3838      C3839   1.404       .  A
C3839      C3840   1.404       .  A
C3839      H3843   1.083       .  S
C3840      H3844   1.083       .  S
C3845      C3846   1.402       .  A
C3845      C3850   1.393       .  A
C3845      H3855   1.083       .  S
C3846      C3851   1.486       .  S
C3846      C3847   1.410       .  A
C3847      C3848   1.405       .  A
C3847      H3852   1.083       .  S
C3848      C3849   1.404       .  A
C3848      H3853   1.083       .  S
C3849      C3850   1.406       .  A
C3850      H3854   1.083       .  S
C3851      C3856   1.402       .  A
C3851      C3860   1.411       .  A
C3856      C3857   1.394       .  A
C3856      H3861   1.083       .  S
C3857      C3858   1.407       .  A
C3857      H3862   1.083       .  S
C3858      C3859   1.403       .  A
C3859      C3860   1.404       .  A
C3859      H3863   1.083       .  S
C3860      H3864   1.083       .  S
C3865      C3866   1.410       .  A
C3865      C3870   1.403       .  A
C3865      H3875   1.082       .  S
C3866      C3871   1.489       .  S
C3866      C3867   1.403       .  A
C3867      C3868   1.391       .  A
C3867      H3872   1.082       .  S
C3868      C3869   1.407       .  A
C3868      H3873   1.083       .  S
C3869      C3870   1.406       .  A
C3870      H3874   1.083       .  S
C3871      C3876   1.406       .  A
C3871      C3880   1.408       .  A
C3876      C3877   1.399       .  A
C3876      H3881   1.082       .  S
C3877      C3878   1.407       .  A
C3877      H3882   1.083       .  S
C3878      C3879   1.403       .  A
C3879      C3880   1.395       .  A
C3879      H3883   1.083       .  S
C3880      H3884   1.082       .  S
C3885      C3886   1.407       .  A
C3885      C3890   1.397       .  A
C3885      H3895   1.083       .  S
C3886      C3891   1.486       .  S
C3886      C3887   1.404       .  A
C3887      C3888   1.397       .  A
C3887      H3892   1.083       .  S
C3888      C3889   1.407       .  A
C3888      H3893   1.083       .  S
C3889      C3890   1.405       .  A
C3890      H3894   1.083       .  S
C3891      C3896   1.402       .  A
C3891      C3900   1.409       .  A
C3896      C3897   1.391       .  A
C3896      H3901   1.083       .  S
C3897      C3898   1.408       .  A
C3897      H3902   1.083       .  S
C3898      C3899   1.405       .  A
C3899      C3900   1.402       .  A
C3899      H3903   1.083       .  S
C3900      H3904   1.083       .  S
C3905      C3906   1.406       .  A
C3905      C3910   1.400       .  A
C3905      H3915   1.082       .  S
C3906      C3911   1.494   1_655  S
C3906      C3907   1.409       .  A
C3907      C3908   1.399       .  A
C3907      H3912   1.082       .  S
C3908      C3909   1.405       .  A
C3908      H3913   1.083       .  S
C3909      C3910   1.408       .  A
C3910      H3914   1.083       .  S
C3911      C3916   1.407       .  A
C3911      C3920   1.408       .  A
C3916      C3917   1.400       .  A
C3916      H3921   1.082       .  S
C3917      C3918   1.408       .  A
C3917      H3922   1.083       .  S
C3918      C3919   1.405       .  A
C3919      C3920   1.398       .  A
C3919      H3923   1.083       .  S
C3920      H3924   1.082       .  S
C3925      C3926   1.401       .  A
C3925      C3930   1.394       .  A
C3925      H3935   1.083       .  S
C3926      C3931   1.485       .  S
C3926      C3927   1.411       .  A
C3927      C3928   1.404       .  A
C3927      H3932   1.083       .  S
C3928      C3929   1.402       .  A
C3928      H3933   1.083       .  S
C3929      C3930   1.406       .  A
C3930      H3934   1.084       .  S
C3931      C3936   1.401       .  A
C3931      C3940   1.410       .  A
C3936      C3937   1.393       .  A
C3936      H3941   1.083       .  S
C3937      C3938   1.408       .  A
C3937      H3942   1.083       .  S
C3938      C3939   1.405       .  A
C3939      C3940   1.405       .  A
C3939      H3943   1.083       .  S
C3940      H3944   1.083       .  S
C3945      C3946   1.406       .  A
C3945      C3950   1.401       .  A
C3945      H3955   1.083       .  S
C3946      C3951   1.490       .  S
C3946      C3947   1.407       .  A
C3947      C3948   1.396       .  A
C3947      H3952   1.083       .  S
C3948      C3949   1.406       .  A
C3948      H3953   1.083       .  S
C3949      C3950   1.407       .  A
C3950      H3954   1.083       .  S
C3951      C3956   1.408       .  A
C3951      C3960   1.406       .  A
C3956      C3957   1.402       .  A
C3956      H3961   1.083       .  S
C3957      C3958   1.406       .  A
C3957      H3962   1.083       .  S
C3958      C3959   1.404       .  A
C3959      C3960   1.395       .  A
C3959      H3963   1.083       .  S
C3960      H3964   1.083       .  S
C3965      C3966   1.406       .  A
C3965      C3970   1.397       .  A
C3965      H3975   1.082       .  S
C3966      C3971   1.492   1_655  S
C3966      C3967   1.408       .  A
C3967      C3968   1.400       .  A
C3967      H3972   1.082       .  S
C3968      C3969   1.406       .  A
C3968      H3973   1.083       .  S
C3969      C3970   1.407       .  A
C3970      H3974   1.083       .  S
C3971      C3976   1.407       .  A
C3971      C3980   1.408       .  A
C3976      C3977   1.398       .  A
C3976      H3981   1.082       .  S
C3977      C3978   1.406       .  A
C3977      H3982   1.083       .  S
C3978      C3979   1.404       .  A
C3979      C3980   1.399       .  A
C3979      H3983   1.083       .  S
C3980      H3984   1.082       .  S
C3985      C3986   1.409       .  A
C3985      C3990   1.401       .  A
C3985      H3995   1.083       .  S
C3986      C3991   1.479       .  S
C3986      C3987   1.400       .  A
C3987      C3988   1.393       .  A
C3987      H3992   1.083       .  S
C3988      C3989   1.407       .  A
C3988      H3993   1.083   1_554  S
C3989      C3990   1.403       .  A
C3990      H3994   1.083       .  S
C3991      C3996   1.409       .  A
C3991      C4000   1.400       .  A
C3996      C3997   1.403       .  A
C3996      H4001   1.083       .  S
C3997      C3998   1.404       .  A
C3997      H4002   1.083       .  S
C3998      C3999   1.406       .  A
C3999      C4000   1.390       .  A
C3999      H4003   1.083       .  S
C4000      H4004   1.083       .  S
C4005      C4006   1.401       .  A
C4005      C4010   1.391       .  A
C4005      H4015   1.083       .  S
C4006      C4011   1.483       .  S
C4006      C4007   1.408       .  A
C4007      C4008   1.403       .  A
C4007      H4012   1.083       .  S
C4008      C4009   1.406       .  A
C4008      H4013   1.083       .  S
C4009      C4010   1.407       .  A
C4010      H4014   1.083       .  S
C4011      C4016   1.406       .  A
C4011      C4020   1.404       .  A
C4016      C4017   1.395       .  A
C4016      H4021   1.083       .  S
C4017      C4018   1.403       .  A
C4017      H4022   1.083       .  S
C4018      C4019   1.407       .  A
C4019      C4020   1.399       .  A
C4019      H4023   1.083       .  S
C4020      H4024   1.083       .  S
C4025      C4026   1.404       .  A
C4025      C4030   1.395       .  A
C4025      H4035   1.083       .  S
C4026      C4031   1.486       .  S
C4026      C4027   1.408       .  A
C4027      C4028   1.398       .  A
C4027      H4032   1.083       .  S
C4028      C4029   1.404       .  A
C4028      H4033   1.083       .  S
C4029      C4030   1.407       .  A
C4030      H4034   1.083       .  S
C4031      C4036   1.409       .  A
C4031      C4040   1.402       .  A
C4036      C4037   1.401       .  A
C4036      H4041   1.083       .  S
C4037      C4038   1.405       .  A
C4037      H4042   1.083       .  S
C4038      C4039   1.408       .  A
C4039      C4040   1.392       .  A
C4039      H4043   1.083       .  S
C4040      H4044   1.083       .  S
C4045      C4046   1.405       .  A
C4045      C4050   1.393       .  A
C4045      H4055   1.083       .  S
C4046      C4051   1.487       .  S
C4046      C4047   1.406       .  A
C4047      C4048   1.402       .  A
C4047      H4052   1.083       .  S
C4048      C4049   1.408       .  A
C4048      H4053   1.083       .  S
C4049      C4050   1.405       .  A
C4050      H4054   1.083       .  S
C4051      C4056   1.406       .  A
C4051      C4060   1.407       .  A
C4056      C4057   1.393       .  A
C4056      H4061   1.083       .  S
C4057      C4058   1.403       .  A
C4057      H4062   1.083       .  S
C4058      C4059   1.406       .  A
C4059      C4060   1.403       .  A
C4059      H4063   1.083       .  S
C4060      H4064   1.083       .  S
C4065      C4066   1.400       .  A
C4065      C4070   1.393       .  A
C4065      H4075   1.083       .  S
C4066      C4071   1.482       .  S
C4066      C4067   1.410       .  A
C4067      C4068   1.404       .  A
C4067      H4072   1.083       .  S
C4068      C4069   1.403       .  A
C4068      H4073   1.083       .  S
C4069      C4070   1.407       .  A
C4070      H4074   1.083       .  S
C4071      C4076   1.400       .  A
C4071      C4080   1.409       .  A
C4076      C4077   1.393       .  A
C4076      H4081   1.083       .  S
C4077      C4078   1.408       .  A
C4077      H4082   1.083       .  S
C4078      C4079   1.404       .  A
C4079      C4080   1.404       .  A
C4079      H4083   1.083       .  S
C4080      H4084   1.083       .  S
C4085      C4086   1.405       .  A
C4085      C4090   1.398       .  A
C4085      H4095   1.083       .  S
C4086      C4091   1.478       .  S
C4086      C4087   1.402       .  A
C4087      C4088   1.396       .  A
C4087      H4092   1.083       .  S
C4088      C4089   1.407       .  A
C4088      H4093   1.083       .  S
C4089      C4090   1.404       .  A
C4090      H4094   1.083       .  S
C4091      C4096   1.401       .  A
C4091      C4100   1.405       .  A
C4096      C4097   1.394       .  A
C4096      H4101   1.083       .  S
C4097      C4098   1.406       .  A
C4097      H4102   1.083       .  S
C4098      C4099   1.406       .  A
C4099      C4100   1.400       .  A
C4099      H4103   1.083       .  S
C4100      H4104   1.083       .  S
C4105      C4106   1.408       .  A
C4105      C4110   1.402       .  A
C4105      H4115   1.083       .  S
C4106      C4111   1.477       .  S
C4106      C4107   1.399       .  A
C4107      C4108   1.393       .  A
C4107      H4112   1.083       .  S
C4108      C4109   1.408       .  A
C4108      H4113   1.083   1_554  S
C4109      C4110   1.404       .  A
C4110      H4114   1.083       .  S
C4111      C4116   1.408       .  A
C4111      C4120   1.399       .  A
C4116      C4117   1.403       .  A
C4116      H4121   1.083       .  S
C4117      C4118   1.405       .  A
C4117      H4122   1.083       .  S
C4118      C4119   1.406       .  A
C4119      C4120   1.391       .  A
C4119      H4123   1.083       .  S
C4120      H4124   1.083       .  S
C4125      C4126   1.404       .  A
C4125      C4130   1.397       .  A
C4125      H4135   1.083       .  S
C4126      C4131   1.484       .  S
C4126      C4127   1.407       .  A
C4127      C4128   1.396       .  A
C4127      H4132   1.083       .  S
C4128      C4129   1.404       .  A
C4128      H4133   1.083       .  S
C4129      C4130   1.408       .  A
C4130      H4134   1.083       .  S
C4131      C4136   1.408       .  A
C4131      C4140   1.402       .  A
C4136      C4137   1.401       .  A
C4136      H4141   1.083       .  S
C4137      C4138   1.405       .  A
C4137      H4142   1.083       .  S
C4138      C4139   1.408       .  A
C4139      C4140   1.392       .  A
C4139      H4143   1.083       .  S
C4140      H4144   1.083       .  S
C4145      C4146   1.410       .  A
C4145      C4150   1.401       .  A
C4145      H4155   1.082       .  S
C4146      C4151   1.489       .  S
C4146      C4147   1.403       .  A
C4147      C4148   1.394       .  A
C4147      H4152   1.083       .  S
C4148      C4149   1.408       .  A
C4148      H4153   1.083       .  S
C4149      C4150   1.404       .  A
C4150      H4154   1.083       .  S
C4151      C4156   1.404       .  A
C4151      C4160   1.409       .  A
C4156      C4157   1.396       .  A
C4156      H4161   1.083       .  S
C4157      C4158   1.408       .  A
C4157      H4162   1.083       .  S
C4158      C4159   1.404       .  A
C4159      C4160   1.399       .  A
C4159      H4163   1.083       .  S
C4160      H4164   1.082       .  S
C4165      C4166   1.402       .  A
C4165      C4170   1.396       .  A
C4165      H4175   1.083       .  S
C4166      C4171   1.481       .  S
C4166      C4167   1.406       .  A
C4167      C4168   1.401       .  A
C4167      H4172   1.083       .  S
C4168      C4169   1.405       .  A
C4168      H4173   1.083       .  S
C4169      C4170   1.406       .  A
C4170      H4174   1.083   1_556  S
C4171      C4176   1.406       .  A
C4171      C4180   1.402       .  A
C4176      C4177   1.400       .  A
C4176      H4181   1.083       .  S
C4177      C4178   1.406       .  A
C4177      H4182   1.083       .  S
C4178      C4179   1.408       .  A
C4179      C4180   1.397       .  A
C4179      H4183   1.083       .  S
C4180      H4184   1.083       .  S
C4185      C4186   1.407       .  A
C4185      C4190   1.399       .  A
C4185      H4195   1.082       .  S
C4186      C4191   1.494   1_655  S
C4186      C4187   1.408       .  A
C4187      C4188   1.399       .  A
C4187      H4192   1.082       .  S
C4188      C4189   1.405       .  A
C4188      H4193   1.083       .  S
C4189      C4190   1.408       .  A
C4190      H4194   1.083       .  S
C4191      C4196   1.406       .  A
C4191      C4200   1.409       .  A
C4196      C4197   1.399       .  A
C4196      H4201   1.082       .  S
C4197      C4198   1.408       .  A
C4197      H4202   1.083       .  S
C4198      C4199   1.405       .  A
C4199      C4200   1.400       .  A
C4199      H4203   1.083       .  S
C4200      H4204   1.082   1_455  S
C4205      C4206   1.401       .  A
C4205      C4210   1.392       .  A
C4205      H4215   1.083       .  S
C4206      C4211   1.487       .  S
C4206      C4207   1.411       .  A
C4207      C4208   1.407       .  A
C4207      H4212   1.083       .  S
C4208      C4209   1.405       .  A
C4208      H4213   1.083       .  S
C4209      C4210   1.407       .  A
C4210      H4214   1.083       .  S
C4211      C4216   1.402       .  A
C4211      C4220   1.411       .  A
C4216      C4217   1.396       .  A
C4216      H4221   1.083       .  S
C4217      C4218   1.408       .  A
C4217      H4222   1.083       .  S
C4218      C4219   1.402       .  A
C4219      C4220   1.403       .  A
C4219      H4223   1.083       .  S
C4220      H4224   1.083       .  S
C4225      C4226   1.402       .  A
C4225      C4230   1.398   1_556  A
C4225      H4235   1.083   1_556  S
C4226      C4231   1.480       .  S
C4226      C4227   1.405       .  A
C4227      C4228   1.399       .  A
C4227      H4232   1.083       .  S
C4228      C4229   1.405       .  A
C4228      H4233   1.083       .  S
C4229      C4230   1.407   1_556  A
C4230      H4234   1.083       .  S
C4231      C4236   1.406       .  A
C4231      C4240   1.401       .  A
C4236      C4237   1.402       .  A
C4236      H4241   1.083       .  S
C4237      C4238   1.407       .  A
C4237      H4242   1.083       .  S
C4238      C4239   1.407       .  A
C4239      C4240   1.395       .  A
C4239      H4243   1.083       .  S
C4240      H4244   1.083       .  S
C4245      C4246   1.407       .  A
C4245      C4250   1.401       .  A
C4245      H4255   1.083       .  S
C4246      C4251   1.486       .  S
C4246      C4247   1.405       .  A
C4247      C4248   1.393       .  A
C4247      H4252   1.083       .  S
C4248      C4249   1.404       .  A
C4248      H4253   1.083       .  S
C4249      C4250   1.406       .  A
C4250      H4254   1.083       .  S
C4251      C4256   1.407       .  A
C4251      C4260   1.405       .  A
C4256      C4257   1.402       .  A
C4256      H4261   1.083       .  S
C4257      C4258   1.406       .  A
C4257      H4262   1.083       .  S
C4258      C4259   1.405       .  A
C4259      C4260   1.393       .  A
C4259      H4263   1.083       .  S
C4260      H4264   1.083       .  S
C4265      C4266   1.406       .  A
C4265      C4270   1.399       .  A
C4265      H4275   1.083       .  S
C4266      C4271   1.491   1_655  S
C4266      C4267   1.407       .  A
C4267      C4268   1.399       .  A
C4267      H4272   1.083       .  S
C4268      C4269   1.406       .  A
C4268      H4273   1.083       .  S
C4269      C4270   1.408       .  A
C4270      H4274   1.083       .  S
C4271      C4276   1.406       .  A
C4271      C4280   1.407       .  A
C4276      C4277   1.399       .  A
C4276      H4281   1.083       .  S
C4277      C4278   1.408       .  A
C4277      H4282   1.083       .  S
C4278      C4279   1.406       .  A
C4279      C4280   1.400       .  A
C4279      H4283   1.083       .  S
C4280      H4284   1.083       .  S
C4285      C4286   1.409       .  A
C4285      C4290   1.405       .  A
C4285      H4295   1.083       .  S
C4286      C4291   1.481       .  S
C4286      C4287   1.400       .  A
C4287      C4288   1.392       .  A
C4287      H4292   1.083       .  S
C4288      C4289   1.407       .  A
C4288      H4293   1.083       .  S
C4289      C4290   1.404       .  A
C4290      H4294   1.083       .  S
C4291      C4296   1.409       .  A
C4291      C4300   1.400       .  A
C4296      C4297   1.403       .  A
C4296      H4301   1.083       .  S
C4297      C4298   1.404       .  A
C4297      H4302   1.083       .  S
C4298      C4299   1.408       .  A
C4299      C4300   1.394       .  A
C4299      H4303   1.083       .  S
C4300      H4304   1.083       .  S
C4305      C4306   1.410       .  A
C4305      C4310   1.402       .  A
C4305      H4315   1.083       .  S
C4306      C4311   1.488       .  S
C4306      C4307   1.403       .  A
C4307      C4308   1.392       .  A
C4307      H4312   1.083       .  S
C4308      C4309   1.408       .  A
C4308      H4313   1.083       .  S
C4309      C4310   1.405       .  A
C4310      H4314   1.083       .  S
C4311      C4316   1.405       .  A
C4311      C4320   1.408       .  A
C4316      C4317   1.398       .  A
C4316      H4321   1.083       .  S
C4317      C4318   1.407       .  A
C4317      H4322   1.083       .  S
C4318      C4319   1.405       .  A
C4319      C4320   1.397       .  A
C4319      H4323   1.083       .  S
C4320      H4324   1.083       .  S
C4325      C4326   1.406       .  A
C4325      C4330   1.397       .  A
C4325      H4335   1.083       .  S
C4326      C4331   1.481       .  S
C4326      C4327   1.403       .  A
C4327      C4328   1.396       .  A
C4327      H4332   1.083       .  S
C4328      C4329   1.408       .  A
C4328      H4333   1.083       .  S
C4329      C4330   1.405       .  A
C4330      H4334   1.083       .  S
C4331      C4336   1.401       .  A
C4331      C4340   1.408       .  A
C4336      C4337   1.392       .  A
C4336      H4341   1.083       .  S
C4337      C4338   1.408       .  A
C4337      H4342   1.083       .  S
C4338      C4339   1.405       .  A
C4339      C4340   1.401       .  A
C4339      H4343   1.083       .  S
C4340      H4344   1.083       .  S
C4345      C4346   1.408       .  A
C4345      C4350   1.401       .  A
C4345      H4355   1.083       .  S
C4346      C4351   1.486       .  S
C4346      C4347   1.404       .  A
C4347      C4348   1.397       .  A
C4347      H4352   1.083       .  S
C4348      C4349   1.407       .  A
C4348      H4353   1.083       .  S
C4349      C4350   1.405       .  A
C4350      H4354   1.083       .  S
C4351      C4356   1.404       .  A
C4351      C4360   1.407       .  A
C4356      C4357   1.397       .  A
C4356      H4361   1.083       .  S
C4357      C4358   1.406       .  A
C4357      H4362   1.083       .  S
C4358      C4359   1.406       .  A
C4359      C4360   1.401       .  A
C4359      H4363   1.083       .  S
C4360      H4364   1.083       .  S
C4365      C4366   1.406       .  A
C4365      C4370   1.394       .  A
C4365      H4375   1.083       .  S
C4366      C4371   1.487       .  S
C4366      C4367   1.407       .  A
C4367      C4368   1.400       .  A
C4367      H4372   1.082       .  S
C4368      C4369   1.406       .  A
C4368      H4373   1.083       .  S
C4369      C4370   1.405       .  A
C4370      H4374   1.083       .  S
C4371      C4376   1.406       .  A
C4371      C4380   1.407       .  A
C4376      C4377   1.394       .  A
C4376      H4381   1.083       .  S
C4377      C4378   1.405       .  A
C4377      H4382   1.083       .  S
C4378      C4379   1.406       .  A
C4379      C4380   1.400       .  A
C4379      H4383   1.083       .  S
C4380      H4384   1.082       .  S
C4385      C4386   1.408       .  A
C4385      C4390   1.401       .  A
C4385      H4395   1.082       .  S
C4386      C4391   1.497       .  S
C4386      C4387   1.408       .  A
C4387      C4388   1.402       .  A
C4387      H4392   1.082       .  S
C4388      C4389   1.407       .  A
C4388      H4393   1.083       .  S
C4389      C4390   1.406       .  A
C4390      H4394   1.083       .  S
C4391      C4396   1.409       .  A
C4391      C4400   1.407       .  A
C4396      C4397   1.402       .  A
C4396      H4401   1.082       .  S
C4397      C4398   1.407       .  A
C4397      H4402   1.083       .  S
C4398      C4399   1.408       .  A
C4399      C4400   1.400       .  A
C4399      H4403   1.083       .  S
C4400      H4404   1.082       .  S
C4405      C4406   1.411       .  A
C4405      C4410   1.405       .  A
C4405      H4415   1.082       .  S
C4406      C4411   1.502       .  S
C4406      C4407   1.408       .  A
C4407      C4408   1.398       .  A
C4407      H4412   1.082       .  S
C4408      C4409   1.408       .  A
C4408      H4413   1.083       .  S
C4409      C4410   1.407       .  A
C4410      H4414   1.083       .  S
C4411      C4416   1.410       .  A
C4411      C4420   1.409       .  A
C4416      C4417   1.403       .  A
C4416      H4421   1.082       .  S
C4417      C4418   1.407       .  A
C4417      H4422   1.083       .  S
C4418      C4419   1.406       .  A
C4419      C4420   1.399       .  A
C4419      H4423   1.083       .  S
C4420      H4424   1.081       .  S
C4425      C4426   1.406       .  A
C4425      C4430   1.400       .  A
C4425      H4435   1.083       .  S
C4426      C4431   1.489       .  S
C4426      C4427   1.408       .  A
C4427      C4428   1.396       .  A
C4427      H4432   1.083       .  S
C4428      C4429   1.403       .  A
C4428      H4433   1.083       .  S
C4429      C4430   1.406       .  A
C4430      H4434   1.083       .  S
C4431      C4436   1.403       .  A
C4431      C4440   1.410       .  A
C4436      C4437   1.392       .  A
C4436      H4441   1.083       .  S
C4437      C4438   1.406       .  A
C4437      H4442   1.083       .  S
C4438      C4439   1.406       .  A
C4439      C4440   1.404       .  A
C4439      H4443   1.083       .  S
C4440      H4444   1.083       .  S
C4445      C4446   1.407       .  A
C4445      C4450   1.397       .  A
C4445      H4455   1.083       .  S
C4446      C4451   1.483       .  S
C4446      C4447   1.403       .  A
C4447      C4448   1.395       .  A
C4447      H4452   1.083       .  S
C4448      C4449   1.408       .  A
C4448      H4453   1.083       .  S
C4449      C4450   1.405       .  A
C4450      H4454   1.083       .  S
C4451      C4456   1.401       .  A
C4451      C4460   1.409       .  A
C4456      C4457   1.391       .  A
C4456      H4461   1.083       .  S
C4457      C4458   1.408       .  A
C4457      H4462   1.083       .  S
C4458      C4459   1.405       .  A
C4459      C4460   1.402       .  A
C4459      H4463   1.083       .  S
C4460      H4464   1.083       .  S
C4465      C4466   1.406       .  A
C4465      C4470   1.400       .  A
C4465      H4475   1.083       .  S
C4466      C4471   1.490       .  S
C4466      C4467   1.407       .  A
C4467      C4468   1.398       .  A
C4467      H4472   1.083       .  S
C4468      C4469   1.406       .  A
C4468      H4473   1.083       .  S
C4469      C4470   1.407       .  A
C4470      H4474   1.083       .  S
C4471      C4476   1.408       .  A
C4471      C4480   1.405       .  A
C4476      C4477   1.401       .  A
C4476      H4481   1.083       .  S
C4477      C4478   1.406       .  A
C4477      H4482   1.083       .  S
C4478      C4479   1.407       .  A
C4479      C4480   1.396       .  A
C4479      H4483   1.083       .  S
C4480      H4484   1.083       .  S
C4485      C4486   1.404       .  A
C4485      C4490   1.393       .  A
C4485      H4495   1.083       .  S
C4486      C4491   1.489       .  S
C4486      C4487   1.407       .  A
C4487      C4488   1.406       .  A
C4487      H4492   1.083       .  S
C4488      C4489   1.409       .  A
C4488      H4493   1.083       .  S
C4489      C4490   1.406       .  A
C4490      H4494   1.083       .  S
C4491      C4496   1.404       .  A
C4491      C4500   1.408       .  A
C4496      C4497   1.393       .  A
C4496      H4501   1.083       .  S
C4497      C4498   1.407       .  A
C4497      H4502   1.083       .  S
C4498      C4499   1.408       .  A
C4499      C4500   1.406       .  A
C4499      H4503   1.083       .  S
C4500      H4504   1.083       .  S
C4505      C4506   1.405       .  A
C4505      C4510   1.395       .  A
C4505      H4515   1.082       .  S
C4506      C4511   1.489       .  S
C4506      C4507   1.408       .  A
C4507      C4508   1.400       .  A
C4507      H4512   1.082       .  S
C4508      C4509   1.405       .  A
C4508      H4513   1.083       .  S
C4509      C4510   1.407       .  A
C4510      H4514   1.083       .  S
C4511      C4516   1.406       .  A
C4511      C4520   1.407       .  A
C4516      C4517   1.396       .  A
C4516      H4521   1.082       .  S
C4517      C4518   1.406       .  A
C4517      H4522   1.083       .  S
C4518      C4519   1.406       .  A
C4519      C4520   1.399       .  A
C4519      H4523   1.083       .  S
C4520      H4524   1.082       .  S
C4525      C4526   1.409       .  A
C4525      C4530   1.395       .  A
C4525      H4535   1.082       .  S
C4526      C4531   1.492       .  S
C4526      C4527   1.408       .  A
C4527      C4528   1.400       .  A
C4527      H4532   1.082       .  S
C4528      C4529   1.405       .  A
C4528      H4533   1.083       .  S
C4529      C4530   1.401       .  A
C4530      H4534   1.084       .  S
C4531      C4536   1.411       .  A
C4531      C4540   1.404       .  A
C4536      C4537   1.404       .  A
C4536      H4541   1.082       .  S
C4537      C4538   1.406       .  A
C4537      H4542   1.083       .  S
C4538      C4539   1.406       .  A
C4539      C4540   1.391       .  A
C4539      H4543   1.083       .  S
C4540      H4544   1.082       .  S
C4545      C4546   1.408       .  A
C4545      C4550   1.398       .  A
C4545      H4555   1.082       .  S
C4546      C4551   1.494       .  S
C4546      C4547   1.410       .  A
C4547      C4548   1.398       .  A
C4547      H4552   1.082       .  S
C4548      C4549   1.402       .  A
C4548      H4553   1.083       .  S
C4549      C4550   1.405       .  A
C4550      H4554   1.083       .  S
C4551      C4556   1.405       .  A
C4551      C4560   1.411       .  A
C4556      C4557   1.393       .  A
C4556      H4561   1.082       .  S
C4557      C4558   1.407       .  A
C4557      H4562   1.083       .  S
C4558      C4559   1.405       .  A
C4559      C4560   1.403       .  A
C4559      H4563   1.083       .  S
C4560      H4564   1.082       .  S
C4565      C4566   1.403       .  A
C4565      C4570   1.394       .  A
C4565      H4575   1.083       .  S
C4566      C4571   1.488       .  S
C4566      C4567   1.408       .  A
C4567      C4568   1.407       .  A
C4567      H4572   1.083       .  S
C4568      C4569   1.408       .  A
C4568      H4573   1.083       .  S
C4569      C4570   1.408       .  A
C4570      H4574   1.083       .  S
C4571      C4576   1.404       .  A
C4571      C4580   1.407       .  A
C4576      C4577   1.394       .  A
C4576      H4581   1.083       .  S
C4577      C4578   1.407       .  A
C4577      H4582   1.083       .  S
C4578      C4579   1.408       .  A
C4579      C4580   1.406       .  A
C4579      H4583   1.083       .  S
C4580      H4584   1.083       .  S
C4585      C4586   1.407   1_565  A
C4585      C4590   1.399       .  A
C4585      H4595   1.082       .  S
C4586      C4591   1.493   1_545  S
C4586      C4587   1.407       .  A
C4587      C4588   1.401       .  A
C4587      H4592   1.083       .  S
C4588      C4589   1.407       .  A
C4588      H4593   1.083       .  S
C4589      C4590   1.407   1_545  A
C4590      H4594   1.083       .  S
C4591      C4596   1.405       .  A
C4591      C4600   1.409   1_565  A
C4596      C4597   1.397       .  A
C4596      H4601   1.082       .  S
C4597      C4598   1.408       .  A
C4597      H4602   1.083       .  S
C4598      C4599   1.406   1_565  A
C4599      C4600   1.402       .  A
C4599      H4603   1.083       .  S
C4600      H4604   1.083       .  S
C4605      C4606   1.406       .  A
C4605      C4610   1.398       .  A
C4605      H4615   1.083       .  S
C4606      C4611   1.481       .  S
C4606      C4607   1.403       .  A
C4607      C4608   1.396       .  A
C4607      H4612   1.083       .  S
C4608      C4609   1.406       .  A
C4608      H4613   1.083       .  S
C4609      C4610   1.404       .  A
C4610      H4614   1.083       .  S
C4611      C4616   1.402       .  A
C4611      C4620   1.407       .  A
C4616      C4617   1.395       .  A
C4616      H4621   1.083       .  S
C4617      C4618   1.407       .  A
C4617      H4622   1.083       .  S
C4618      C4619   1.405       .  A
C4619      C4620   1.400       .  A
C4619      H4623   1.083       .  S
C4620      H4624   1.083       .  S
C4625      C4626   1.409   1_545  A
C4625      C4630   1.402       .  A
C4625      H4635   1.083       .  S
C4626      C4631   1.495   1_565  S
C4626      C4627   1.406       .  A
C4627      C4628   1.400       .  A
C4627      H4632   1.083       .  S
C4628      C4629   1.409       .  A
C4628      H4633   1.083       .  S
C4629      C4630   1.406   1_565  A
C4630      H4634   1.083       .  S
C4631      C4636   1.408       .  A
C4631      C4640   1.407   1_545  A
C4636      C4637   1.401       .  A
C4636      H4641   1.083       .  S
C4637      C4638   1.407       .  A
C4637      H4642   1.083       .  S
C4638      C4639   1.408   1_545  A
C4639      C4640   1.401       .  A
C4639      H4643   1.083       .  S
C4640      H4644   1.082       .  S
C4645      C4646   1.404   1_565  A
C4645      C4650   1.397       .  A
C4645      H4655   1.083       .  S
C4646      C4651   1.484       .  S
C4646      C4647   1.407       .  A
C4647      C4648   1.394       .  A
C4647      H4652   1.083       .  S
C4648      C4649   1.403       .  A
C4648      H4653   1.083       .  S
C4649      C4650   1.408   1_545  A
C4650      H4654   1.083       .  S
C4651      C4656   1.409   1_545  A
C4651      C4660   1.401       .  A
C4656      C4657   1.403       .  A
C4656      H4661   1.083       .  S
C4657      C4658   1.406   1_565  A
C4657      H4662   1.083       .  S
C4658      C4659   1.407       .  A
C4659      C4660   1.388       .  A
C4659      H4663   1.083       .  S
C4660      H4664   1.083       .  S
C4665      C4666   1.409       .  A
C4665      C4670   1.400       .  A
C4665      H4675   1.082       .  S
C4666      C4671   1.492       .  S
C4666      C4667   1.406   1_545  A
C4667      C4668   1.397       .  A
C4667      H4672   1.082       .  S
C4668      C4669   1.406   1_565  A
C4668      H4673   1.083       .  S
C4669      C4670   1.406       .  A
C4670      H4674   1.083       .  S
C4671      C4676   1.404       .  A
C4671      C4680   1.410   1_545  A
C4676      C4677   1.395       .  A
C4676      H4681   1.082       .  S
C4677      C4678   1.409       .  A
C4677      H4682   1.083       .  S
C4678      C4679   1.405   1_545  A
C4679      C4680   1.402       .  A
C4679      H4683   1.083       .  S
C4680      H4684   1.082       .  S
C4685      C4686   1.404       .  A
C4685      C4690   1.398       .  A
C4685      H4695   1.083       .  S
C4686      C4691   1.487       .  S
C4686      C4687   1.407       .  A
C4687      C4688   1.403       .  A
C4687      H4692   1.083       .  S
C4688      C4689   1.406       .  A
C4688      H4693   1.083       .  S
C4689      C4690   1.407       .  A
C4690      H4694   1.083       .  S
C4691      C4696   1.405       .  A
C4691      C4700   1.406       .  A
C4696      C4697   1.399       .  A
C4696      H4701   1.083       .  S
C4697      C4698   1.407       .  A
C4697      H4702   1.083       .  S
C4698      C4699   1.406       .  A
C4699      C4700   1.403       .  A
C4699      H4703   1.083       .  S
C4700      H4704   1.083       .  S
C4705      C4706   1.406       .  A
C4705      C4710   1.401       .  A
C4705      H4715   1.083       .  S
C4706      C4711   1.489       .  S
C4706      C4707   1.405   1_545  A
C4707      C4708   1.398       .  A
C4707      H4712   1.083       .  S
C4708      C4709   1.407   1_565  A
C4708      H4713   1.083       .  S
C4709      C4710   1.407       .  A
C4710      H4714   1.083       .  S
C4711      C4716   1.407       .  A
C4711      C4720   1.405   1_545  A
C4716      C4717   1.401       .  A
C4716      H4721   1.083       .  S
C4717      C4718   1.407   1_545  A
C4717      H4722   1.083       .  S
C4718      C4719   1.408       .  A
C4719      C4720   1.398       .  A
C4719      H4723   1.083       .  S
C4720      H4724   1.083       .  S
C4725      C4726   1.404       .  A
C4725      C4730   1.400       .  A
C4725      H4735   1.083       .  S
C4726      C4731   1.473       .  S
C4726      C4727   1.401       .  A
C4727      C4728   1.392       .  A
C4727      H4732   1.083       .  S
C4728      C4729   1.405       .  A
C4728      H4733   1.083       .  S
C4729      C4730   1.406       .  A
C4730      H4734   1.083       .  S
C4731      C4736   1.404       .  A
C4731      C4740   1.401       .  A
C4736      C4737   1.399       .  A
C4736      H4741   1.083       .  S
C4737      C4738   1.405       .  A
C4737      H4742   1.083       .  S
C4738      C4739   1.405       .  A
C4739      C4740   1.392       .  A
C4739      H4743   1.083       .  S
C4740      H4744   1.083       .  S
C4745      C4746   1.404   1_565  A
C4745      C4750   1.392       .  A
C4745      H4755   1.083       .  S
C4746      C4751   1.487       .  S
C4746      C4747   1.407       .  A
C4747      C4748   1.405       .  A
C4747      H4752   1.083       .  S
C4748      C4749   1.408       .  A
C4748      H4753   1.083       .  S
C4749      C4750   1.406   1_545  A
C4750      H4754   1.083       .  S
C4751      C4756   1.404   1_545  A
C4751      C4760   1.407       .  A
C4756      C4757   1.391       .  A
C4756      H4761   1.083       .  S
C4757      C4758   1.407   1_565  A
C4757      H4762   1.083       .  S
C4758      C4759   1.408       .  A
C4759      C4760   1.405       .  A
C4759      H4763   1.083       .  S
C4760      H4764   1.083       .  S
C4765      C4766   1.405   1_565  A
C4765      C4770   1.397       .  A
C4765      H4775   1.083       .  S
C4766      C4771   1.492       .  S
C4766      C4767   1.409       .  A
C4767      C4768   1.402       .  A
C4767      H4772   1.083       .  S
C4768      C4769   1.406   1_545  A
C4768      H4773   1.083       .  S
C4769      C4770   1.408       .  A
C4770      H4774   1.083       .  S
C4771      C4776   1.407   1_545  A
C4771      C4780   1.406       .  A
C4776      C4777   1.399       .  A
C4776      H4781   1.083       .  S
C4777      C4778   1.407   1_565  A
C4777      H4782   1.083       .  S
C4778      C4779   1.407       .  A
C4779      C4780   1.400       .  A
C4779      H4783   1.083       .  S
C4780      H4784   1.083       .  S
C4785      C4786   1.402       .  A
C4785      C4790   1.393       .  A
C4785      H4795   1.083       .  S
C4786      C4791   1.484       .  S
C4786      C4787   1.408   1_545  A
C4787      C4788   1.400       .  A
C4787      H4792   1.083       .  S
C4788      C4789   1.405   1_565  A
C4788      H4793   1.083       .  S
C4789      C4790   1.409       .  A
C4790      H4794   1.083       .  S
C4791      C4796   1.407       .  A
C4791      C4800   1.404   1_545  A
C4796      C4797   1.398       .  A
C4796      H4801   1.083       .  S
C4797      C4798   1.406       .  A
C4797      H4802   1.083       .  S
C4798      C4799   1.406   1_545  A
C4799      C4800   1.395       .  A
C4799      H4803   1.083       .  S
C4800      H4804   1.083       .  S
C4805      C4806   1.404   1_565  A
C4805      C4810   1.397       .  A
C4805      H4815   1.083       .  S
C4806      C4811   1.486       .  S
C4806      C4807   1.408       .  A
C4807      C4808   1.397       .  A
C4807      H4812   1.083       .  S
C4808      C4809   1.405       .  A
C4808      H4813   1.083       .  S
C4809      C4810   1.408   1_545  A
C4810      H4814   1.083       .  S
C4811      C4816   1.410   1_545  A
C4811      C4820   1.401       .  A
C4816      C4817   1.403       .  A
C4816      H4821   1.083       .  S
C4817      C4818   1.405   1_565  A
C4817      H4822   1.083       .  S
C4818      C4819   1.409       .  A
C4819      C4820   1.391       .  A
C4819      H4823   1.083       .  S
C4820      H4824   1.083       .  S
C4825      C4826   1.406       .  A
C4825      C4830   1.403       .  A
C4825      H4835   1.083       .  S
C4826      C4831   1.479       .  S
C4826      C4827   1.401       .  A
C4827      C4828   1.393       .  A
C4827      H4832   1.083       .  S
C4828      C4829   1.407       .  A
C4828      H4833   1.083       .  S
C4829      C4830   1.407       .  A
C4830      H4834   1.083       .  S
C4831      C4836   1.404       .  A
C4831      C4840   1.404       .  A
C4836      C4837   1.400       .  A
C4836      H4841   1.083       .  S
C4837      C4838   1.405       .  A
C4837      H4842   1.083       .  S
C4838      C4839   1.403       .  A
C4839      C4840   1.396       .  A
C4839      H4843   1.083       .  S
C4840      H4844   1.083       .  S
C4845      C4846   1.404   1_565  A
C4845      C4850   1.391       .  A
C4845      H4855   1.083       .  S
C4846      C4851   1.487       .  S
C4846      C4847   1.408       .  A
C4847      C4848   1.404       .  A
C4847      H4852   1.083       .  S
C4848      C4849   1.407   1_545  A
C4848      H4853   1.083       .  S
C4849      C4850   1.406       .  A
C4850      H4854   1.083       .  S
C4851      C4856   1.404   1_545  A
C4851      C4860   1.408       .  A
C4856      C4857   1.391       .  A
C4856      H4861   1.083       .  S
C4857      C4858   1.407   1_565  A
C4857      H4862   1.083       .  S
C4858      C4859   1.407       .  A
C4859      C4860   1.404       .  A
C4859      H4863   1.083       .  S
C4860      H4864   1.083       .  S
C4865      C4866   1.409       .  A
C4865      C4870   1.400       .  A
C4865      H4875   1.082       .  S
C4866      C4871   1.494       .  S
C4866      C4867   1.406       .  A
C4867      C4868   1.397       .  A
C4867      H4872   1.082       .  S
C4868      C4869   1.407       .  A
C4868      H4873   1.083       .  S
C4869      C4870   1.406       .  A
C4870      H4874   1.083       .  S
C4871      C4876   1.409       .  A
C4871      C4880   1.407       .  A
C4876      C4877   1.400       .  A
C4876      H4881   1.082       .  S
C4877      C4878   1.405       .  A
C4877      H4882   1.083       .  S
C4878      C4879   1.407       .  A
C4879      C4880   1.397       .  A
C4879      H4883   1.083       .  S
C4880      H4884   1.082       .  S
C4885      C4886   1.401       .  A
C4885      C4890   1.394       .  A
C4885      H4895   1.083       .  S
C4886      C4891   1.481       .  S
C4886      C4887   1.408       .  A
C4887      C4888   1.400       .  A
C4887      H4892   1.083       .  S
C4888      C4889   1.403       .  A
C4888      H4893   1.083       .  S
C4889      C4890   1.408       .  A
C4890      H4894   1.083       .  S
C4891      C4896   1.409       .  A
C4891      C4900   1.401       .  A
C4896      C4897   1.403       .  A
C4896      H4901   1.083       .  S
C4897      C4898   1.403       .  A
C4897      H4902   1.083       .  S
C4898      C4899   1.405       .  A
C4899      C4900   1.391       .  A
C4899      H4903   1.083       .  S
C4900      H4904   1.083       .  S
C4905      C4906   1.409       .  A
C4905      C4910   1.403       .  A
C4905      H4915   1.082       .  S
C4906      C4911   1.494       .  S
C4906      C4907   1.406       .  A
C4907      C4908   1.396       .  A
C4907      H4912   1.082       .  S
C4908      C4909   1.407       .  A
C4908      H4913   1.083       .  S
C4909      C4910   1.407       .  A
C4910      H4914   1.083       .  S
C4911      C4916   1.408       .  A
C4911      C4920   1.407       .  A
C4916      C4917   1.401       .  A
C4916      H4921   1.082       .  S
C4917      C4918   1.407       .  A
C4917      H4922   1.083       .  S
C4918      C4919   1.406       .  A
C4919      C4920   1.398       .  A
C4919      H4923   1.083       .  S
C4920      H4924   1.082       .  S
C4925      C4926   1.401       .  A
C4925      C4930   1.396       .  A
C4925      H4935   1.083       .  S
C4926      C4931   1.488       .  S
C4926      C4927   1.410       .  A
C4927      C4928   1.405       .  A
C4927      H4932   1.083       .  S
C4928      C4929   1.404       .  A
C4928      H4933   1.083       .  S
C4929      C4930   1.409       .  A
C4930      H4934   1.083       .  S
C4931      C4936   1.410       .  A
C4931      C4940   1.401       .  A
C4936      C4937   1.406       .  A
C4936      H4941   1.083       .  S
C4937      C4938   1.405       .  A
C4937      H4942   1.083       .  S
C4938      C4939   1.408       .  A
C4939      C4940   1.395       .  A
C4939      H4943   1.083       .  S
C4940      H4944   1.083       .  S
C4945      C4946   1.403       .  A
C4945      C4950   1.394       .  A
C4945      H4955   1.083       .  S
C4946      C4951   1.487   1_554  S
C4946      C4947   1.409       .  A
C4947      C4948   1.400       .  A
C4947      H4952   1.083       .  S
C4948      C4949   1.404       .  A
C4948      H4953   1.083       .  S
C4949      C4950   1.409       .  A
C4950      H4954   1.083       .  S
C4951      C4956   1.408       .  A
C4951      C4960   1.405       .  A
C4956      C4957   1.398       .  A
C4956      H4961   1.083       .  S
C4957      C4958   1.405       .  A
C4957      H4962   1.083       .  S
C4958      C4959   1.407       .  A
C4959      C4960   1.396       .  A
C4959      H4963   1.083       .  S
C4960      H4964   1.083       .  S
C4965      C4966   1.407       .  A
C4965      C4970   1.397       .  A
C4965      H4975   1.083       .  S
C4966      C4971   1.486       .  S
C4966      C4967   1.404       .  A
C4967      C4968   1.398       .  A
C4967      H4972   1.083       .  S
C4968      C4969   1.408       .  A
C4968      H4973   1.083       .  S
C4969      C4970   1.404       .  A
C4970      H4974   1.083       .  S
C4971      C4976   1.402       .  A
C4971      C4980   1.409       .  A
C4976      C4977   1.392       .  A
C4976      H4981   1.083       .  S
C4977      C4978   1.409       .  A
C4977      H4982   1.083       .  S
C4978      C4979   1.406       .  A
C4979      C4980   1.403       .  A
C4979      H4983   1.083       .  S
C4980      H4984   1.083       .  S
C4985      C4986   1.406       .  A
C4985      C4990   1.400       .  A
C4985      H4995   1.083       .  S
C4986      C4991   1.494   1_556  S
C4986      C4987   1.408       .  A
C4987      C4988   1.400       .  A
C4987      H4992   1.082       .  S
C4988      C4989   1.406       .  A
C4988      H4993   1.083       .  S
C4989      C4990   1.408       .  A
C4990      H4994   1.083       .  S
C4991      C4996   1.409       .  A
C4991      C5000   1.405       .  A
C4996      C4997   1.403       .  A
C4996      H5001   1.083       .  S
C4997      C4998   1.406       .  A
C4997      H5002   1.083       .  S
C4998      C4999   1.408       .  A
C4999      C5000   1.397       .  A
C4999      H5003   1.083       .  S
C5000      H5004   1.083   1_554  S
C5005      C5006   1.409       .  A
C5005      C5010   1.402       .  A
C5005      H5015   1.083       .  S
C5006      C5011   1.481       .  S
C5006      C5007   1.400       .  A
C5007      C5008   1.393       .  A
C5007      H5012   1.083       .  S
C5008      C5009   1.407       .  A
C5008      H5013   1.083   1_556  S
C5009      C5010   1.404       .  A
C5010      H5014   1.083       .  S
C5011      C5016   1.401       .  A
C5011      C5020   1.408       .  A
C5016      C5017   1.394       .  A
C5016      H5021   1.083       .  S
C5017      C5018   1.408       .  A
C5017      H5022   1.083       .  S
C5018      C5019   1.403       .  A
C5019      C5020   1.402       .  A
C5019      H5023   1.083       .  S
C5020      H5024   1.083       .  S
C5025      C5026   1.403       .  A
C5025      C5030   1.393       .  A
C5025      H5035   1.083       .  S
C5026      C5031   1.486       .  S
C5026      C5027   1.406       .  A
C5027      C5028   1.406       .  A
C5027      H5032   1.083       .  S
C5028      C5029   1.409       .  A
C5028      H5033   1.083       .  S
C5029      C5030   1.407       .  A
C5030      H5034   1.083       .  S
C5031      C5036   1.402       .  A
C5031      C5040   1.408       .  A
C5036      C5037   1.391       .  A
C5036      H5041   1.083       .  S
C5037      C5038   1.407       .  A
C5037      H5042   1.083       .  S
C5038      C5039   1.409       .  A
C5039      C5040   1.408       .  A
C5039      H5043   1.083       .  S
C5040      H5044   1.083       .  S
C5045      C5046   1.404       .  A
C5045      C5050   1.396       .  A
C5045      H5055   1.083       .  S
C5046      C5051   1.491       .  S
C5046      C5047   1.409       .  A
C5047      C5048   1.402       .  A
C5047      H5052   1.083       .  S
C5048      C5049   1.405       .  A
C5048      H5053   1.083       .  S
C5049      C5050   1.408       .  A
C5050      H5054   1.083       .  S
C5051      C5056   1.407       .  A
C5051      C5060   1.405       .  A
C5056      C5057   1.400       .  A
C5056      H5061   1.083       .  S
C5057      C5058   1.407       .  A
C5057      H5062   1.083       .  S
C5058      C5059   1.408       .  A
C5059      C5060   1.399       .  A
C5059      H5063   1.083       .  S
C5060      H5064   1.083       .  S
C5065      C5066   1.401       .  A
C5065      C5070   1.394       .  A
C5065      H5075   1.083       .  S
C5066      C5071   1.485       .  S
C5066      C5067   1.409       .  A
C5067      C5068   1.403       .  A
C5067      H5072   1.083       .  S
C5068      C5069   1.404       .  A
C5068      H5073   1.083       .  S
C5069      C5070   1.408       .  A
C5070      H5074   1.083       .  S
C5071      C5076   1.410       .  A
C5071      C5080   1.401       .  A
C5076      C5077   1.403       .  A
C5076      H5081   1.083       .  S
C5077      C5078   1.403       .  A
C5077      H5082   1.083       .  S
C5078      C5079   1.407       .  A
C5079      C5080   1.394       .  A
C5079      H5083   1.083       .  S
C5080      H5084   1.083       .  S
C5085      C5086   1.405       .  A
C5085      C5090   1.399       .  A
C5085      H5095   1.083       .  S
C5086      C5091   1.486       .  S
C5086      C5087   1.407       .  A
C5087      C5088   1.394       .  A
C5087      H5092   1.083       .  S
C5088      C5089   1.403       .  A
C5088      H5093   1.083       .  S
C5089      C5090   1.407       .  A
C5090      H5094   1.083       .  S
C5091      C5096   1.409       .  A
C5091      C5100   1.403       .  A
C5096      C5097   1.403       .  A
C5096      H5101   1.083       .  S
C5097      C5098   1.406       .  A
C5097      H5102   1.083       .  S
C5098      C5099   1.406       .  A
C5099      C5100   1.390       .  A
C5099      H5103   1.083       .  S
C5100      H5104   1.083       .  S
C5105      C5106   1.410       .  A
C5105      C5110   1.399       .  A
C5105      H5115   1.082       .  S
C5106      C5111   1.490       .  S
C5106      C5107   1.405       .  A
C5107      C5108   1.396       .  A
C5107      H5112   1.082       .  S
C5108      C5109   1.407       .  A
C5108      H5113   1.083       .  S
C5109      C5110   1.404       .  A
C5110      H5114   1.083       .  S
C5111      C5116   1.403       .  A
C5111      C5120   1.411       .  A
C5116      C5117   1.393       .  A
C5116      H5121   1.082       .  S
C5117      C5118   1.408       .  A
C5117      H5122   1.083       .  S
C5118      C5119   1.405       .  A
C5119      C5120   1.402       .  A
C5119      H5123   1.083       .  S
C5120      H5124   1.082       .  S
C5125      C5126   1.408       .  A
C5125      C5130   1.406       .  A
C5125      H5135   1.083       .  S
C5126      C5131   1.488       .  S
C5126      C5127   1.404       .  A
C5127      C5128   1.391       .  A
C5127      H5132   1.083       .  S
C5128      C5129   1.405       .  A
C5128      H5133   1.083       .  S
C5129      C5130   1.409       .  A
C5130      H5134   1.083       .  S
C5131      C5136   1.408       .  A
C5131      C5140   1.404       .  A
C5136      C5137   1.407       .  A
C5136      H5141   1.083       .  S
C5137      C5138   1.408       .  A
C5137      H5142   1.083       .  S
C5138      C5139   1.405       .  A
C5139      C5140   1.391       .  A
C5139      H5143   1.083       .  S
C5140      H5144   1.083       .  S
C5145      C5146   1.407       .  A
C5145      C5150   1.401       .  A
C5145      H5155   1.082   1_556  S
C5146      C5151   1.495   1_556  S
C5146      C5147   1.408       .  A
C5147      C5148   1.400       .  A
C5147      H5152   1.083       .  S
C5148      C5149   1.405       .  A
C5148      H5153   1.083       .  S
C5149      C5150   1.409       .  A
C5150      H5154   1.083       .  S
C5151      C5156   1.407       .  A
C5151      C5160   1.408       .  A
C5156      C5157   1.401       .  A
C5156      H5161   1.082   1_554  S
C5157      C5158   1.409       .  A
C5157      H5162   1.083       .  S
C5158      C5159   1.405       .  A
C5159      C5160   1.400       .  A
C5159      H5163   1.083       .  S
C5160      H5164   1.082       .  S
C5165      C5166   1.400       .  A
C5165      C5170   1.393       .  A
C5165      H5175   1.083   1_556  S
C5166      C5171   1.477       .  S
C5166      C5167   1.407       .  A
C5167      C5168   1.400       .  A
C5167      H5172   1.083       .  S
C5168      C5169   1.403       .  A
C5168      H5173   1.083       .  S
C5169      C5170   1.408       .  A
C5170      H5174   1.083   1_556  S
C5171      C5176   1.407       .  A
C5171      C5180   1.400       .  A
C5176      C5177   1.401       .  A
C5176      H5181   1.083       .  S
C5177      C5178   1.404       .  A
C5177      H5182   1.083       .  S
C5178      C5179   1.407       .  A
C5179      C5180   1.392       .  A
C5179      H5183   1.083       .  S
C5180      H5184   1.083       .  S
C5185      C5186   1.402       .  A
C5185      C5190   1.397       .  A
C5185      H5195   1.083       .  S
C5186      C5191   1.478       .  S
C5186      C5187   1.404       .  A
C5187      C5188   1.399       .  A
C5187      H5192   1.083       .  S
C5188      C5189   1.406       .  A
C5188      H5193   1.083       .  S
C5189      C5190   1.407       .  A
C5190      H5194   1.083       .  S
C5191      C5196   1.401       .  A
C5191      C5200   1.405       .  A
C5196      C5197   1.395       .  A
C5196      H5201   1.083       .  S
C5197      C5198   1.407       .  A
C5197      H5202   1.083       .  S
C5198      C5199   1.406       .  A
C5199      C5200   1.401       .  A
C5199      H5203   1.083       .  S
C5200      H5204   1.083       .  S
C5205      C5206   1.408       .  A
C5205      C5210   1.399       .  A
C5205      H5215   1.083       .  S
C5206      C5211   1.490       .  S
C5206      C5207   1.406       .  A
C5207      C5208   1.399       .  A
C5207      H5212   1.083       .  S
C5208      C5209   1.408       .  A
C5208      H5213   1.083       .  S
C5209      C5210   1.404       .  A
C5210      H5214   1.083       .  S
C5211      C5216   1.407       .  A
C5211      C5220   1.406       .  A
C5216      C5217   1.398       .  A
C5216      H5221   1.083       .  S
C5217      C5218   1.406       .  A
C5217      H5222   1.083       .  S
C5218      C5219   1.408       .  A
C5219      C5220   1.399       .  A
C5219      H5223   1.083       .  S
C5220      H5224   1.083       .  S
C5225      C5226   1.402       .  A
C5225      C5230   1.396       .  A
C5225      H5235   1.083       .  S
C5226      C5231   1.487       .  S
C5226      C5227   1.409       .  A
C5227      C5228   1.402       .  A
C5227      H5232   1.083       .  S
C5228      C5229   1.404       .  A
C5228      H5233   1.083       .  S
C5229      C5230   1.408       .  A
C5230      H5234   1.083       .  S
C5231      C5236   1.410       .  A
C5231      C5240   1.402       .  A
C5236      C5237   1.404       .  A
C5236      H5241   1.083       .  S
C5237      C5238   1.404       .  A
C5237      H5242   1.083       .  S
C5238      C5239   1.406       .  A
C5239      C5240   1.394       .  A
C5239      H5243   1.083       .  S
C5240      H5244   1.083       .  S
C5245      C5246   1.401       .  A
C5245      C5250   1.393       .  A
C5245      H5255   1.083       .  S
C5246      C5251   1.485       .  S
C5246      C5247   1.408       .  A
C5247      C5248   1.402       .  A
C5247      H5252   1.083       .  S
C5248      C5249   1.406       .  A
C5248      H5253   1.083       .  S
C5249      C5250   1.409       .  A
C5250      H5254   1.083       .  S
C5251      C5256   1.407       .  A
C5251      C5260   1.404       .  A
C5256      C5257   1.398       .  A
C5256      H5261   1.083       .  S
C5257      C5258   1.406       .  A
C5257      H5262   1.083       .  S
C5258      C5259   1.407       .  A
C5259      C5260   1.398       .  A
C5259      H5263   1.083       .  S
C5260      H5264   1.083       .  S
C5265      C5266   1.403       .  A
C5265      C5270   1.392       .  A
C5265      H5275   1.082       .  S
C5266      C5271   1.489       .  S
C5266      C5267   1.410       .  A
C5267      C5268   1.402       .  A
C5267      H5272   1.082       .  S
C5268      C5269   1.405       .  A
C5268      H5273   1.083       .  S
C5269      C5270   1.407       .  A
C5270      H5274   1.083       .  S
C5271      C5276   1.408       .  A
C5271      C5280   1.406       .  A
C5276      C5277   1.397       .  A
C5276      H5281   1.082       .  S
C5277      C5278   1.404       .  A
C5277      H5282   1.083       .  S
C5278      C5279   1.407       .  A
C5279      C5280   1.398       .  A
C5279      H5283   1.083       .  S
C5280      H5284   1.082       .  S
C5285      C5286   1.407       .  A
C5285      C5290   1.403       .  A
C5285      H5295   1.083       .  S
C5286      C5291   1.484       .  S
C5286      C5287   1.403       .  A
C5287      C5288   1.395       .  A
C5287      H5292   1.083       .  S
C5288      C5289   1.406       .  A
C5288      H5293   1.083       .  S
C5289      C5290   1.406       .  A
C5290      H5294   1.083       .  S
C5291      C5296   1.406       .  A
C5291      C5300   1.404       .  A
C5296      C5297   1.402       .  A
C5296      H5301   1.083       .  S
C5297      C5298   1.406       .  A
C5297      H5302   1.083       .  S
C5298      C5299   1.405       .  A
C5299      C5300   1.396       .  A
C5299      H5303   1.083       .  S
C5300      H5304   1.083       .  S
C5305      C5306   1.407       .  A
C5305      C5310   1.400       .  A
C5305      H5315   1.083       .  S
C5306      C5311   1.492       .  S
C5306      C5307   1.406       .  A
C5307      C5308   1.399       .  A
C5307      H5312   1.083       .  S
C5308      C5309   1.408       .  A
C5308      H5313   1.083       .  S
C5309      C5310   1.406       .  A
C5310      H5314   1.083       .  S
C5311      C5316   1.408       .  A
C5311      C5320   1.406       .  A
C5316      C5317   1.400       .  A
C5316      H5321   1.083       .  S
C5317      C5318   1.406       .  A
C5317      H5322   1.083       .  S
C5318      C5319   1.408       .  A
C5319      C5320   1.399       .  A
C5319      H5323   1.083       .  S
C5320      H5324   1.083       .  S
C5325      C5326   1.408       .  A
C5325      C5330   1.403       .  A
C5325      H5335   1.083       .  S
C5326      C5331   1.484       .  S
C5326      C5327   1.401       .  A
C5327      C5328   1.396       .  A
C5327      H5332   1.083       .  S
C5328      C5329   1.409       .  A
C5328      H5333   1.083       .  S
C5329      C5330   1.405       .  A
C5330      H5334   1.083       .  S
C5331      C5336   1.401       .  A
C5331      C5340   1.410       .  A
C5336      C5337   1.394       .  A
C5336      H5341   1.083       .  S
C5337      C5338   1.406       .  A
C5337      H5342   1.083       .  S
C5338      C5339   1.404       .  A
C5339      C5340   1.405       .  A
C5339      H5343   1.083       .  S
C5340      H5344   1.083       .  S
C5345      C5346   1.401       .  A
C5345      C5350   1.396       .  A
C5345      H5355   1.083       .  S
C5346      C5351   1.477       .  S
C5346      C5347   1.404       .  A
C5347      C5348   1.402       .  A
C5347      H5352   1.083       .  S
C5348      C5349   1.407       .  A
C5348      H5353   1.083       .  S
C5349      C5350   1.407       .  A
C5350      H5354   1.083       .  S
C5351      C5356   1.401       .  A
C5351      C5360   1.404       .  A
C5356      C5357   1.396       .  A
C5356      H5361   1.083       .  S
C5357      C5358   1.407       .  A
C5357      H5362   1.083       .  S
C5358      C5359   1.407       .  A
C5359      C5360   1.402       .  A
C5359      H5363   1.083       .  S
C5360      H5364   1.083       .  S
C5365      C5366   1.408       .  A
C5365      C5370   1.407       .  A
C5365      H5375   1.083       .  S
C5366      C5371   1.487       .  S
C5366      C5367   1.403       .  A
C5367      C5368   1.390       .  A
C5367      H5372   1.083       .  S
C5368      C5369   1.407       .  A
C5368      H5373   1.083       .  S
C5369      C5370   1.408       .  A
C5370      H5374   1.083       .  S
C5371      C5376   1.407       .  A
C5371      C5380   1.404       .  A
C5376      C5377   1.406       .  A
C5376      H5381   1.083       .  S
C5377      C5378   1.408       .  A
C5377      H5382   1.083       .  S
C5378      C5379   1.406       .  A
C5379      C5380   1.391       .  A
C5379      H5383   1.083       .  S
C5380      H5384   1.083       .  S
C5385      C5386   1.410       .  A
C5385      C5390   1.403       .  A
C5385      H5395   1.082       .  S
C5386      C5391   1.496       .  S
C5386      C5387   1.407       .  A
C5387      C5388   1.395       .  A
C5387      H5392   1.082       .  S
C5388      C5389   1.406       .  A
C5388      H5393   1.083       .  S
C5389      C5390   1.406       .  A
C5390      H5394   1.083       .  S
C5391      C5396   1.408       .  A
C5391      C5400   1.411       .  A
C5396      C5397   1.395       .  A
C5396      H5401   1.082       .  S
C5397      C5398   1.404       .  A
C5397      H5402   1.084       .  S
C5398      C5399   1.404       .  A
C5399      C5400   1.402       .  A
C5399      H5403   1.083       .  S
C5400      H5404   1.082       .  S
C5405      C5406   1.410       .  A
C5405      C5410   1.403       .  A
C5405      H5415   1.083       .  S
C5406      C5411   1.484       .  S
C5406      C5407   1.401       .  A
C5407      C5408   1.393       .  A
C5407      H5412   1.083       .  S
C5408      C5409   1.406       .  A
C5408      H5413   1.083       .  S
C5409      C5410   1.403       .  A
C5410      H5414   1.083       .  S
C5411      C5416   1.401       .  A
C5411      C5420   1.409       .  A
C5416      C5417   1.393       .  A
C5416      H5421   1.083       .  S
C5417      C5418   1.407       .  A
C5417      H5422   1.083       .  S
C5418      C5419   1.403       .  A
C5419      C5420   1.403       .  A
C5419      H5423   1.083       .  S
C5420      H5424   1.083       .  S
C5425      C5426   1.409       .  A
C5425      C5430   1.402       .  A
C5425      H5435   1.083       .  S
C5426      C5431   1.485   1_554  S
C5426      C5427   1.402       .  A
C5427      C5428   1.391       .  A
C5427      H5432   1.083       .  S
C5428      C5429   1.408       .  A
C5428      H5433   1.083       .  S
C5429      C5430   1.405       .  A
C5430      H5434   1.083       .  S
C5431      C5436   1.404       .  A
C5431      C5440   1.408       .  A
C5436      C5437   1.396       .  A
C5436      H5441   1.083       .  S
C5437      C5438   1.407       .  A
C5437      H5442   1.083       .  S
C5438      C5439   1.404       .  A
C5439      C5440   1.398       .  A
C5439      H5443   1.083       .  S
C5440      H5444   1.083       .  S
C5445      C5446   1.405       .  A
C5445      C5450   1.397       .  A
C5445      H5455   1.083       .  S
C5446      C5451   1.487       .  S
C5446      C5447   1.408       .  A
C5447      C5448   1.396       .  A
C5447      H5452   1.082       .  S
C5448      C5449   1.403       .  A
C5448      H5453   1.083       .  S
C5449      C5450   1.407       .  A
C5450      H5454   1.083       .  S
C5451      C5456   1.409       .  A
C5451      C5460   1.403       .  A
C5456      C5457   1.401       .  A
C5456      H5461   1.082       .  S
C5457      C5458   1.405       .  A
C5457      H5462   1.083       .  S
C5458      C5459   1.407       .  A
C5459      C5460   1.392       .  A
C5459      H5463   1.083       .  S
C5460      H5464   1.083       .  S
C5465      C5466   1.406       .  A
C5465      C5470   1.403       .  A
C5465      H5475   1.083       .  S
C5466      C5471   1.485       .  S
C5466      C5467   1.404       .  A
C5467      C5468   1.397       .  A
C5467      H5472   1.083       .  S
C5468      C5469   1.404       .  A
C5468      H5473   1.083       .  S
C5469      C5470   1.405       .  A
C5470      H5474   1.083       .  S
C5471      C5476   1.406       .  A
C5471      C5480   1.403       .  A
C5476      C5477   1.403       .  A
C5476      H5481   1.083       .  S
C5477      C5478   1.407       .  A
C5477      H5482   1.083       .  S
C5478      C5479   1.407       .  A
C5479      C5480   1.396       .  A
C5479      H5483   1.083       .  S
C5480      H5484   1.083       .  S
C5485      C5486   1.404       .  A
C5485      C5490   1.393       .  A
C5485      H5495   1.083       .  S
C5486      C5491   1.485       .  S
C5486      C5487   1.405       .  A
C5487      C5488   1.404       .  A
C5487      H5492   1.083       .  S
C5488      C5489   1.409       .  A
C5488      H5493   1.083       .  S
C5489      C5490   1.405       .  A
C5490      H5494   1.083       .  S
C5491      C5496   1.402       .  A
C5491      C5500   1.408       .  A
C5496      C5497   1.391       .  A
C5496      H5501   1.083       .  S
C5497      C5498   1.406       .  A
C5497      H5502   1.083       .  S
C5498      C5499   1.407       .  A
C5499      C5500   1.406       .  A
C5499      H5503   1.083       .  S
C5500      H5504   1.083       .  S
