geometry optimzed in LAMMPS
_audit_creation_date              2020-11-30 
_audit_creation_method            'lammps2cif' 
_symmetry_space_group_name_H-M    'P1' 
_symmetry_Int_Tables_number       1 
_symmetry_cell_setting            triclinic 
loop_ 
_symmetry_equiv_pos_as_xyz 
  x,y,z 
_cell_length_a                    46.73768247 
_cell_length_b                    46.72155733410874 
_cell_length_c                    33.702675217573734 
_cell_angle_alpha                 89.9849760820284 
_cell_angle_beta                  90.03021857598637 
_cell_angle_gamma                 120.1014377056937 
loop_ 
_atom_site_label 
_atom_site_type_symbol 
_atom_site_fract_x 
_atom_site_fract_y 
_atom_site_fract_z 
_atom_site_charge 
Fe1        Fe  0.20250828  0.75115343  0.16841363     1.65800
Fe2        Fe  0.24922004  0.79638756  0.24769351     1.73200
Fe3        Fe  0.18885535  0.81028229  0.21026170     1.54400
O4          O  0.18957221  0.81569609  0.14873090    -0.80200
O5          O  0.22106807  0.79484706  0.29531527    -0.78500
O6          O  0.20407111  0.78087892  0.12260771    -0.82700
O7          O  0.15188575  0.73132523  0.17409838    -0.77500
O8          O  0.23148806  0.85603997  0.21333164    -0.79300
O9          O  0.23412155  0.74693865  0.25820603    -0.82100
C10         C  0.13280380  0.73991471  0.19013306     0.98700
C11         C  0.19650836  0.80326325  0.11928856     1.06200
O12         O  0.21349977  0.78595323  0.20882048    -1.11000
O13         O  0.28220262  0.79951760  0.20519133    -0.73500
O14         O  0.25152431  0.76576618  0.15647368    -0.77000
O15         O  0.14312562  0.76753300  0.20732113    -0.77600
C16         C  0.27921498  0.78469849  0.17272707     0.97600
O17         O  0.19955388  0.71718624  0.20948914    -0.75600
O18         O  0.26920612  0.84716302  0.24262315    -0.80800
C19         C  0.19848761  0.80190924  0.30037613     1.00200
C20         C  0.25984277  0.86630854  0.22848758     1.06200
O21         O  0.18475231  0.80844507  0.27199240    -0.76400
C22         C  0.21468198  0.71951748  0.24157130     1.04500
Fe23       Fe  0.19992224  0.74903366  0.67204258     1.65800
Fe24       Fe  0.24749121  0.79686287  0.74901120     1.73200
Fe25       Fe  0.18660537  0.80930381  0.71065279     1.54400
O26         O  0.18661874  0.81270079  0.64882845    -0.80200
O27         O  0.21875797  0.79446073  0.79641096    -0.78500
O28         O  0.20177664  0.77771549  0.62477670    -0.82700
O29         O  0.14923222  0.72964974  0.67748356    -0.77500
O30         O  0.22896948  0.85513474  0.71154021    -0.79300
O31         O  0.23440484  0.74813839  0.76006068    -0.82100
C32         C  0.13042098  0.73865850  0.69340925     0.98700
C33         C  0.19394037  0.79982188  0.62017449     1.06200
O34         O  0.21129866  0.78508406  0.71056986    -1.11000
O35         O  0.28036796  0.80065272  0.70593428    -0.73500
O36         O  0.24896763  0.76294933  0.66079060    -0.77000
O37         O  0.14104549  0.76658285  0.70980569    -0.77600
C38         C  0.27694364  0.78357324  0.67527514     0.97600
O39         O  0.19683981  0.71629764  0.71503565    -0.75600
O40         O  0.26613145  0.84730251  0.74386026    -0.80800
C41         C  0.19661741  0.80222278  0.80108604     1.00200
C42         C  0.25688653  0.86592157  0.72800160     1.06200
O43         O  0.18343737  0.80924090  0.77247247    -0.76400
C44         C  0.21406309  0.72005937  0.74569029     1.04500
Fe45       Fe  0.24615166  0.45193439  0.33471912     1.65800
Fe46       Fe  0.19924531  0.45250237  0.41234663     1.73200
Fe47       Fe  0.18636592  0.37863990  0.37490467     1.54400
O48         O  0.18255396  0.37451837  0.31311090    -0.80200
O49         O  0.20089538  0.42606910  0.46016433    -0.78500
O50         O  0.21706282  0.42450324  0.28803620    -0.82700
O51         O  0.26557384  0.42069257  0.34051287    -0.77500
O52         O  0.14056471  0.37514845  0.37611740    -0.79300
O53         O  0.24836361  0.48751329  0.42354606    -0.82100
C54         C  0.25684425  0.39311442  0.35708097     0.98700
C55         C  0.19514989  0.39436850  0.28403472     1.06200
O56         O  0.21054787  0.42764993  0.37399316    -1.11000
O57         O  0.19605838  0.48203362  0.36933407    -0.73500
O58         O  0.23219944  0.48696870  0.32286397    -0.77000
O59         O  0.22911561  0.37594334  0.37397563    -0.77600
C60         C  0.21227308  0.49493973  0.33792293     0.97600
O61         O  0.27931326  0.48206528  0.37706302    -0.75600
O62         O  0.14862799  0.42097685  0.40674093    -0.80800
C63         C  0.19344855  0.39626841  0.46518993     1.00200
C64         C  0.12988416  0.39266749  0.39172737     1.06200
O65         O  0.18680755  0.37599632  0.43674966    -0.76400
C66         C  0.27618153  0.49514618  0.40843377     1.04500
Fe67       Fe  0.20126312  0.45226897  0.91485224     1.65800
Fe68       Fe  0.24551666  0.45247397  0.83414681     1.73200
Fe69       Fe  0.18714898  0.37898137  0.87462361     1.54400
O70         O  0.18786154  0.37547535  0.93647814    -0.80200
O71         O  0.21438931  0.42636950  0.78816440    -0.78500
O72         O  0.20545918  0.42598548  0.96100868    -0.82700
O73         O  0.15052372  0.42018497  0.91202091    -0.77500
O74         O  0.23009229  0.37655808  0.87234781    -0.79300
O75         O  0.23234330  0.48861722  0.82659722    -0.82100
C76         C  0.13131875  0.39274368  0.89532043     0.98700
C77         C  0.19646845  0.39572649  0.96530546     1.06200
O78         O  0.21127621  0.42787346  0.87455642    -1.11000
O79         O  0.28020740  0.48115839  0.87593894    -0.73500
O80         O  0.25068291  0.48788682  0.92329504    -0.77000
O81         O  0.14151367  0.37590835  0.87687073    -0.77600
C82         C  0.27804274  0.49498306  0.90721232     0.97600
O83         O  0.19581401  0.48154248  0.87360786    -0.75600
O84         O  0.26415979  0.42025542  0.83561158    -0.80800
C85         C  0.19371846  0.39585506  0.78395077     1.00200
C86         C  0.25657423  0.39311915  0.85271155     1.06200
O87         O  0.18296023  0.37551637  0.81277066    -0.76400
C88         C  0.21237919  0.49595357  0.84293496     1.04500
Fe89       Fe  0.54411495  0.79487748  0.99878567     1.65800
Fe90       Fe  0.54303564  0.74853873  0.07783422     1.73200
Fe91       Fe  0.61698508  0.80939504  0.04087645     1.54400
O92         O  0.62192335  0.81005992  0.97913144    -0.80200
O93         O  0.56779960  0.77803334  0.12537037    -0.78500
O94         O  0.57195378  0.79274024  0.95296518    -0.82700
O95         O  0.57526800  0.84578700  0.00373797    -0.77500
O96         O  0.62063876  0.76706368  0.04249969    -0.79300
O97         O  0.50662665  0.76110266  0.08604184    -0.82100
C98         C  0.60230603  0.86499084  0.02127164     0.98700
C99         C  0.60235804  0.80197259  0.94963495     1.06200
O100        O  0.56810210  0.78428954  0.03913320    -1.11000
O101        O  0.51548725  0.71495557  0.03455548    -0.73500
O102        O  0.50936031  0.74543074  0.98797732    -0.77000
O103        O  0.61915163  0.85473025  0.03960831    -0.77600
C104        C  0.50223669  0.71772353  0.00313310     0.97600
O105        O  0.51362398  0.79839717  0.04004864    -0.75600
O106        O  0.57572329  0.73070204  0.07581771    -0.80800
C107        C  0.59788251  0.79945332  0.13089113     1.00200
C108        C  0.60373151  0.73969003  0.06037373     1.06200
O109        O  0.61883042  0.81207510  0.10286437    -0.76400
C110        C  0.49944241  0.78149971  0.07064779     1.04500
Fe111      Fe  0.54164886  0.79514979  0.50469985     1.65800
Fe112      Fe  0.54233773  0.74898592  0.58308790     1.73200
Fe113      Fe  0.61545372  0.80695654  0.54077934     1.54400
O114        O  0.61703387  0.80579887  0.47890595    -0.80200
O115        O  0.57084858  0.77851043  0.62891644    -0.78500
O116        O  0.56660439  0.79145642  0.45660747    -0.82700
O117        O  0.57444056  0.84574934  0.50854699    -0.77500
O118        O  0.61678854  0.76343662  0.54182738    -0.79300
O119        O  0.50814395  0.76395854  0.59483577    -0.82100
C120        C  0.60292972  0.86436397  0.52323926     0.98700
C121        C  0.59621479  0.79853689  0.45096113     1.06200
O122        O  0.56652360  0.78376307  0.54288643    -1.11000
O123        O  0.51119993  0.71543519  0.54181760    -0.73500
O124        O  0.50530237  0.74609781  0.49529269    -0.77000
O125        O  0.62007594  0.85337783  0.53927495    -0.77600
C126        C  0.49746954  0.71837642  0.51093992     0.97600
O127        O  0.51354838  0.80017202  0.54812868    -0.75600
O128        O  0.57261587  0.72855624  0.57732388    -0.80800
C129        C  0.60136249  0.79948829  0.63207941     1.00200
C130        C  0.59953470  0.73620978  0.55979631     1.06200
O131        O  0.62073436  0.81115722  0.60245421    -0.76400
C132        C  0.50055622  0.78413083  0.57963843     1.04500
Fe133      Fe  0.79319457  0.24960686  0.41823169     1.65800
Fe134      Fe  0.74581949  0.20283326  0.49634095     1.73200
Fe135      Fe  0.80541835  0.18857991  0.45718942     1.54400
O136        O  0.80361508  0.18346463  0.39555080    -0.80200
O137        O  0.77456200  0.20430649  0.54333842    -0.78500
O138        O  0.79285831  0.22151917  0.37116552    -0.82700
O139        O  0.84368646  0.26946743  0.42540127    -0.77500
O140        O  0.76266465  0.14299865  0.46050595    -0.79300
O141        O  0.76022135  0.25198488  0.50779570    -0.82100
C142        C  0.86227573  0.25937608  0.43934487     0.98700
C143        C  0.79854146  0.19793215  0.36672167     1.06200
O144        O  0.78150896  0.21366873  0.45724708    -1.11000
O145        O  0.71310283  0.20016767  0.45372880    -0.73500
O146        O  0.74424438  0.23466239  0.40563921    -0.77000
O147        O  0.85143297  0.23069723  0.45372991    -0.77600
C148        C  0.71643186  0.21538665  0.42143949     0.97600
O149        O  0.79513642  0.28261595  0.45997634    -0.75600
O150        O  0.72559191  0.15199604  0.49098480    -0.80800
C151        C  0.79738431  0.19744830  0.54765301     1.00200
C152        C  0.73456149  0.13276483  0.47622027     1.06200
O153        O  0.81048536  0.19054850  0.51885962    -0.76400
C154        C  0.77938407  0.27967746  0.49164232     1.04500
Fe155      Fe  0.79359294  0.24991770  0.91784137     1.65800
Fe156      Fe  0.74787081  0.20380059  0.99725692     1.73200
Fe157      Fe  0.80757243  0.19014968  0.95736818     1.54400
O158        O  0.80602223  0.18502173  0.89571474    -0.80200
O159        O  0.77726402  0.20605253  0.04386957    -0.78500
O160        O  0.79349415  0.22172334  0.87110527    -0.82700
O161        O  0.84428756  0.27075113  0.92469431    -0.77500
O162        O  0.76505941  0.14423569  0.96074341    -0.79300
O163        O  0.76194545  0.25289808  0.00825785    -0.82100
C164        C  0.86334271  0.26146499  0.93929813     0.98700
C165        C  0.80014856  0.19880138  0.86679954     1.06200
O166        O  0.78303486  0.21461647  0.95746437    -1.11000
O167        O  0.71435841  0.20027263  0.95526439    -0.73500
O168        O  0.74424384  0.23375164  0.90575865    -0.77000
O169        O  0.85308842  0.23297696  0.95405522    -0.77600
C170        C  0.71682242  0.21458565  0.92249653     0.97600
O171        O  0.79520052  0.28314691  0.95901784    -0.75600
O172        O  0.72826555  0.15302634  0.99240413    -0.80800
C173        C  0.79986575  0.19887756  0.04797149     1.00200
C174        C  0.73718564  0.13387630  0.97724492     1.06200
O175        O  0.81270309  0.19186177  0.01901990    -0.76400
C176        C  0.78027800  0.28042484  0.99130807     1.04500
Fe177      Fe  0.74816616  0.54721751  0.08638107     1.65800
Fe178      Fe  0.79632025  0.54802891  0.16358465     1.73200
Fe179      Fe  0.80913454  0.62131421  0.12391722     1.54400
O180        O  0.81236988  0.62421228  0.06211502    -0.80200
O181        O  0.79586235  0.57585495  0.21053487    -0.78500
O182        O  0.77571905  0.57439198  0.03852104    -0.82700
O183        O  0.72834082  0.57796317  0.09323439    -0.77500
O184        O  0.85492283  0.62452533  0.12509126    -0.79300
O185        O  0.74746375  0.51349480  0.17668685    -0.82100
C186        C  0.73790377  0.60632299  0.10805152     0.98700
C187        C  0.79830784  0.60415303  0.03358222     1.06200
O188        O  0.78456733  0.57221945  0.12460211    -1.11000
O189        O  0.79819196  0.51717112  0.12139338    -0.73500
O190        O  0.76277577  0.51282569  0.07410973    -0.77000
O191        O  0.76649184  0.62433101  0.12266853    -0.77600
C192        C  0.78230657  0.50453862  0.08966831     0.97600
O193        O  0.71589962  0.51687086  0.12937858    -0.75600
O194        O  0.84684462  0.57892473  0.15628625    -0.80800
C195        C  0.80297178  0.60563889  0.21465344     1.00200
C196        C  0.86558799  0.60692693  0.14059489     1.06200
O197        O  0.80919476  0.62530075  0.18563095    -0.76400
C198        C  0.71945747  0.50480397  0.16138270     1.04500
Fe199      Fe  0.79447957  0.54712417  0.66285321     1.65800
Fe200      Fe  0.74617758  0.54533971  0.58510062     1.73200
Fe201      Fe  0.80518537  0.61992510  0.62397408     1.54400
O202        O  0.80258977  0.62299895  0.68551309    -0.80200
O203        O  0.77381247  0.57359418  0.53792272    -0.78500
O204        O  0.79390867  0.57484534  0.70998985    -0.82700
O205        O  0.84479036  0.57850364  0.65549218    -0.77500
O206        O  0.76201410  0.62177868  0.61966004    -0.79300
O207        O  0.76222785  0.51225661  0.57247041    -0.82100
C208        C  0.86302600  0.60759729  0.64240891     0.98700
C209        C  0.79833108  0.60371571  0.71437957     1.06200
O210        O  0.78199239  0.57084479  0.62396392    -1.11000
O211        O  0.71419021  0.51413154  0.62765433    -0.73500
O212        O  0.74587807  0.51238805  0.67607633    -0.77000
O213        O  0.85171943  0.62513402  0.62841077    -0.77600
C214        C  0.71791038  0.50286738  0.66021017     0.97600
O215        O  0.79674470  0.51631635  0.62070981    -0.75600
O216        O  0.72459081  0.57439674  0.59162667    -0.80800
C217        C  0.79685569  0.60325234  0.53356389     1.00200
C218        C  0.73357473  0.60297245  0.60516738     1.06200
O219        O  0.81068605  0.62306756  0.56240016    -0.76400
C220        C  0.78163805  0.50405514  0.58843624     1.04500
Fe221      Fe  0.45156807  0.20507038  0.25150586     1.65800
Fe222      Fe  0.45184546  0.24996911  0.33160450     1.73200
Fe223      Fe  0.37827931  0.19047787  0.29208428     1.54400
O224        O  0.37468019  0.19125721  0.23022085    -0.80200
O225        O  0.42571332  0.21975809  0.37807969    -0.78500
O226        O  0.42525761  0.20940981  0.20546972    -0.82700
O227        O  0.41953535  0.15422849  0.25405693    -0.77500
O228        O  0.37519242  0.23302412  0.29464437    -0.79300
O229        O  0.48730479  0.23614419  0.34016331    -0.82100
C230        C  0.39235974  0.13488754  0.27115392     0.98700
C231        C  0.39491966  0.20019327  0.20134033     1.06200
O232        O  0.42717788  0.21519063  0.29171131    -1.11000
O233        O  0.48099265  0.28434706  0.28977647    -0.73500
O234        O  0.48763093  0.25442329  0.24299046    -0.77000
O235        O  0.37559121  0.14499844  0.28985808    -0.77600
C236        C  0.49508019  0.28193771  0.25893511     0.97600
O237        O  0.48037258  0.19948860  0.29325320    -0.75600
O238        O  0.41985437  0.26869287  0.32899612    -0.80800
C239        C  0.39552703  0.19826261  0.38259849     1.00200
C240        C  0.39210247  0.26014541  0.31299954     1.06200
O241        O  0.37512919  0.18631601  0.35393173    -0.76400
C242        C  0.49423768  0.21569610  0.32436602     1.04500
Fe243      Fe  0.45214397  0.20262943  0.75278386     1.65800
Fe244      Fe  0.45263135  0.25061712  0.83006513     1.73200
Fe245      Fe  0.37873851  0.18947041  0.79241057     1.54400
O246        O  0.37508382  0.19095309  0.73073042    -0.80200
O247        O  0.42552678  0.22279075  0.87767721    -0.78500
O248        O  0.42419736  0.20287497  0.70590352    -0.82700
O249        O  0.42172769  0.15213122  0.75974739    -0.77500
O250        O  0.37497442  0.23167483  0.79586835    -0.79300
O251        O  0.48702659  0.23602993  0.84237940    -0.82100
C252        C  0.39336814  0.13329330  0.77435222     0.98700
C253        C  0.39466829  0.19657452  0.70175079     1.06200
O254        O  0.42779282  0.21425338  0.79171258    -1.11000
O255        O  0.48292112  0.28292149  0.78722400    -0.73500
O256        O  0.48653446  0.25147531  0.73993269    -0.77000
O257        O  0.37550111  0.14381245  0.78925512    -0.77600
C258        C  0.49517712  0.27939879  0.75539977     0.97600
O259        O  0.48283935  0.20076426  0.79501062    -0.75600
O260        O  0.42183441  0.27049889  0.82355980    -0.80800
C261        C  0.39626896  0.19914724  0.88256128     1.00200
C262        C  0.39295170  0.26040715  0.81010345     1.06200
O263        O  0.37625038  0.18471736  0.85408129    -0.76400
C264        C  0.49524761  0.21644485  0.82687101     1.04500
C265        C  0.37447887  0.18927882  0.58381586     0.18500
C266        C  0.37744942  0.21556371  0.56068153    -0.10600
C267        C  0.37774289  0.21377910  0.51920160    -0.11400
C268        C  0.37510416  0.18572141  0.50050567     0.20100
C269        C  0.37158593  0.15920297  0.52362254    -0.13500
C270        C  0.37127092  0.16097970  0.56511884    -0.11800
C271        C  0.37833078  0.18532733  0.45788131     0.01100
C272        C  0.38413117  0.18851805  0.42268674    -0.31800
C273        C  0.37737239  0.19231352  0.62650675     0.02400
C274        C  0.38309719  0.19473094  0.66171770    -0.33400
H275        H  0.38031111  0.23771386  0.57468034     0.13500
H276        H  0.38078949  0.23459935  0.50172502     0.13300
H277        H  0.36983596  0.13751572  0.50963308     0.13200
H278        H  0.36931696  0.14061714  0.58262635     0.12200
C279        C  0.37597397  0.18711900  0.00051368     0.18500
C280        C  0.37410169  0.16172817  0.02450473    -0.10600
C281        C  0.37338266  0.16407973  0.06590477    -0.11400
C282        C  0.37456523  0.19183400  0.08362125     0.20100
C283        C  0.37580615  0.21691659  0.05960140    -0.13500
C284        C  0.37648647  0.21454816  0.01821701    -0.11800
C285        C  0.37735069  0.19569012  0.12623374     0.01100
C286        C  0.38316887  0.19843770  0.16142261    -0.31800
C287        C  0.37960414  0.18637326  0.95800927     0.02400
C288        C  0.38540857  0.18953471  0.92282440    -0.33400
H289        H  0.37396720  0.14053122  0.01128320     0.13500
H290        H  0.37276473  0.14466503  0.08411460     0.13300
H291        H  0.37708138  0.23865035  0.07284011     0.13200
H292        H  0.37820776  0.23448397  0.00004779     0.12200
C293        C  0.57541883  0.36407746  0.71736177     0.18500
C294        C  0.57427378  0.39266602  0.70775315    -0.10600
C295        C  0.60353819  0.42227563  0.69981075    -0.11400
C296        C  0.63406061  0.42343591  0.70159100     0.20100
C297        C  0.63521208  0.39490147  0.71148648    -0.13500
C298        C  0.60596712  0.36531041  0.71941179    -0.11800
C299        C  0.66399451  0.45327213  0.69101951     0.01100
C300        C  0.68892383  0.47695403  0.67898855    -0.31800
C301        C  0.54546651  0.33377905  0.72656169     0.02400
C302        C  0.52143352  0.30858612  0.73736003    -0.33400
H303        H  0.55082790  0.39205240  0.70636588     0.13500
H304        H  0.60234499  0.44413926  0.69194386     0.13300
H305        H  0.65863593  0.39545758  0.71270514     0.13200
H306        H  0.60716788  0.34341464  0.72709310     0.12200
C307        C  0.81041780  0.62547839  0.91553606     0.18500
C308        C  0.83441062  0.62384486  0.89228576    -0.10600
C309        C  0.83233145  0.62370320  0.85080528    -0.11400
C310        C  0.80623473  0.62515949  0.83218283     0.20100
C311        C  0.78275238  0.62774690  0.85540547    -0.13500
C312        C  0.78484958  0.62791735  0.89692178    -0.11800
C313        C  0.80233475  0.62132399  0.78958871     0.01100
C314        C  0.79970460  0.61505185  0.75448874    -0.31800
C315        C  0.81033218  0.62178256  0.95816615     0.02400
C316        C  0.80717447  0.61554351  0.99328349    -0.33400
H317        H  0.85415261  0.62170419  0.90619015     0.13500
H318        H  0.85054550  0.62147910  0.83326675     0.13300
H319        H  0.76234178  0.62867680  0.84148960     0.13200
H320        H  0.76598425  0.62895735  0.91449375     0.12200
C321        C  0.81110530  0.62517707  0.41585880     0.18500
C322        C  0.83777505  0.62811422  0.39360537    -0.10600
C323        C  0.83689945  0.62880324  0.35206701    -0.11400
C324        C  0.80935172  0.62654022  0.33244971     0.20100
C325        C  0.78303101  0.62440476  0.35472813    -0.13500
C326        C  0.78391768  0.62374125  0.39626466    -0.11800
C327        C  0.80693996  0.62344291  0.28973158     0.01100
C328        C  0.80485472  0.61740402  0.25461041    -0.31800
C329        C  0.81036439  0.62114363  0.45844590     0.02400
C330        C  0.80657793  0.61479931  0.49350422    -0.33400
H331        H  0.85881622  0.62898843  0.40829100     0.13500
H332        H  0.85728838  0.63015165  0.33523588     0.13300
H333        H  0.76145989  0.62232428  0.34001523     0.13200
H334        H  0.76300867  0.62121013  0.41306415     0.12200
C335        C  0.63462888  0.42639377  0.20382876     0.18500
C336        C  0.60500186  0.41825857  0.18427406    -0.10600
C337        C  0.57578645  0.38903394  0.19380445    -0.11400
C338        C  0.57600888  0.36771127  0.22288876     0.20100
C339        C  0.60557728  0.37600047  0.24271165    -0.13500
C340        C  0.63479162  0.40522096  0.23317753    -0.11800
C341        C  0.54605873  0.33734234  0.23249815     0.01100
C342        C  0.52189666  0.31186542  0.24262286    -0.31800
C343        C  0.66501732  0.45560711  0.19238932     0.02400
C344        C  0.69021022  0.47897532  0.18013045    -0.33400
H345        H  0.60456633  0.43430251  0.16140784     0.13500
H346        H  0.55310828  0.38296832  0.17831028     0.13300
H347        H  0.60608697  0.35978567  0.26529307     0.13200
H348        H  0.65754270  0.41111225  0.24838154     0.12200
C349        C  0.78577226  0.36589073  0.02925101     0.18500
C350        C  0.80245102  0.38345668  0.06338922    -0.10600
C351        C  0.80318988  0.41294813  0.07317103    -0.11400
C352        C  0.78730259  0.42508671  0.04883755     0.20100
C353        C  0.77072792  0.40758563  0.01461352    -0.13500
C354        C  0.76999111  0.37809848  0.00483069    -0.11800
C355        C  0.78694759  0.45473208  0.05992177     0.01100
C356        C  0.78556831  0.47843581  0.07163683    -0.31800
C357        C  0.78481318  0.33542013  0.01908365     0.02400
C358        C  0.78330391  0.31003432  0.00834872    -0.33400
H359        H  0.81474889  0.37430582  0.08249818     0.13500
H360        H  0.81591763  0.42613766  0.09982418     0.13300
H361        H  0.75818903  0.41658653  0.99568328     0.13200
H362        H  0.75702308  0.36476434  0.97835410     0.12200
C363        C  0.57276945  0.20807837  0.86694540     0.18500
C364        C  0.58933174  0.22154515  0.90272872    -0.10600
C365        C  0.61831833  0.22109206  0.91168516    -0.11400
C366        C  0.63092143  0.20722944  0.88489094     0.20100
C367        C  0.61418552  0.19343883  0.84928153    -0.13500
C368        C  0.58516846  0.19388258  0.84032282    -0.11800
C369        C  0.66131164  0.20783641  0.89397878     0.01100
C370        C  0.68693445  0.21000861  0.90471579    -0.31800
C371        C  0.54392866  0.21008205  0.85662964     0.02400
C372        C  0.52085759  0.21262841  0.84517658    -0.33400
H373        H  0.58008035  0.23271817  0.92343046     0.13500
H374        H  0.63108400  0.23184289  0.93930179     0.13300
H375        H  0.62370697  0.18268129  0.82835203     0.13200
H376        H  0.57263596  0.18353832  0.81247267     0.12200
C377        C  0.80911433  0.18841362  0.74876653     0.18500
C378        C  0.82670588  0.21930104  0.73000114    -0.10600
C379        C  0.82859503  0.22138618  0.68854483    -0.11400
C380        C  0.81295112  0.19258189  0.66546358     0.20100
C381        C  0.79588055  0.16163748  0.68421375    -0.13500
C382        C  0.79397018  0.15954949  0.72572670    -0.11800
C383        C  0.81200156  0.19491132  0.62277152     0.01100
C384        C  0.80776288  0.19653421  0.58763771    -0.31800
C385        C  0.80522528  0.18686532  0.79140895     0.02400
C386        C  0.80229260  0.18941437  0.82668368    -0.33400
H387        H  0.83835188  0.24183772  0.74741063     0.13500
H388        H  0.84156028  0.24546969  0.67450368     0.13300
H389        H  0.78337499  0.13918640  0.66673816     0.13200
H390        H  0.78012272  0.13554441  0.73977075     0.12200
C391        C  0.81224758  0.19039193  0.16561597     0.18500
C392        C  0.78326005  0.16568864  0.18362003    -0.10600
C393        C  0.78069483  0.16330908  0.22503137    -0.11400
C394        C  0.80713889  0.18559597  0.24882591     0.20100
C395        C  0.83642650  0.20985747  0.23083590    -0.13500
C396        C  0.83898260  0.21226069  0.18937507    -0.11800
C397        C  0.80335563  0.18533374  0.29142546     0.01100
C398        C  0.80047528  0.18846011  0.32657762    -0.31800
C399        C  0.81326368  0.19458284  0.12304697     0.02400
C400        C  0.80998321  0.19734358  0.08790806    -0.33400
H401        H  0.76229153  0.14878614  0.16563462     0.13500
H402        H  0.75782634  0.14465843  0.23845723     0.13300
H403        H  0.85696941  0.22745634  0.24885727     0.13200
H404        H  0.86141675  0.23162912  0.17592366     0.12200
C405        C  0.78724971  0.42526930  0.54643339     0.18500
C406        C  0.76341862  0.40277926  0.51998278    -0.10600
C407        C  0.76238464  0.37302435  0.51090398    -0.11400
C408        C  0.78512035  0.36552953  0.52830054     0.20100
C409        C  0.80914940  0.38817110  0.55442234    -0.13500
C410        C  0.81018542  0.41792412  0.56349553    -0.11800
C411        C  0.78392054  0.33479886  0.51893204     0.01100
C412        C  0.78234700  0.30926951  0.50868517    -0.31800
C413        C  0.78704823  0.45493473  0.55783977     0.02400
C414        C  0.78556787  0.47844389  0.57011164    -0.33400
H415        H  0.74542511  0.40805687  0.50676291     0.13500
H416        H  0.74376797  0.35580197  0.49054780     0.13300
H417        H  0.82693425  0.38274730  0.56794592     0.13200
H418        H  0.82859463  0.43499739  0.58414803     0.12200
C419        C  0.63221850  0.21007446  0.38059079     0.18500
C420        C  0.63061010  0.23908392  0.38455371    -0.10600
C421        C  0.60132829  0.23891370  0.37559950    -0.11400
C422        C  0.57348049  0.20971069  0.36275086     0.20100
C423        C  0.57507056  0.18068302  0.35872327    -0.13500
C424        C  0.60439092  0.18085044  0.36770554    -0.11800
C425        C  0.54377777  0.20999285  0.35233423     0.01100
C426        C  0.52015886  0.21173375  0.34134985    -0.31800
C427        C  0.66209842  0.21022802  0.39120687     0.02400
C428        C  0.68714790  0.21171384  0.40299691    -0.33400
H429        H  0.65193208  0.26176863  0.39468590     0.13500
H430        H  0.60042682  0.26153457  0.37858110     0.13300
H431        H  0.55373597  0.15802329  0.34857616     0.13200
H432        H  0.60533168  0.15825280  0.36473819     0.12200
C433        C  0.64133115  0.67847092  0.57447862     0.18500
C434        C  0.67178791  0.69434326  0.59432118    -0.10600
C435        C  0.68874808  0.67738832  0.60222554    -0.11400
C436        C  0.67538348  0.64435941  0.59042410     0.20100
C437        C  0.64484727  0.62836882  0.57064789    -0.13500
C438        C  0.62783263  0.64537026  0.56273142    -0.11800
C439        C  0.69370441  0.62751821  0.59757894     0.01100
C440        C  0.71092543  0.61529673  0.60237966    -0.31800
C441        C  0.62423951  0.69642661  0.56651518     0.02400
C442        C  0.61187062  0.71353846  0.56192849    -0.33400
H443        H  0.68249765  0.71990598  0.60358902     0.13500
H444        H  0.71237015  0.69009337  0.61732596     0.13300
H445        H  0.63430808  0.60287891  0.56117250     0.13200
H446        H  0.60431200  0.63279704  0.54740276     0.12200
C447        C  0.67722399  0.03258933  0.49028920     0.18500
C448        C  0.67783142  0.01070365  0.46229944    -0.10600
C449        C  0.66183564  0.97668692  0.47024051    -0.11400
C450        C  0.64510693  0.96423677  0.50627223     0.20100
C451        C  0.64414483  0.98606658  0.53406493    -0.13500
C452        C  0.66014640  0.02009998  0.52611709    -0.11800
C453        C  0.62942933  0.92919615  0.51473991     0.01100
C454        C  0.61695446  0.89970577  0.52012356    -0.31800
C455        C  0.69546033  0.06789702  0.48317058     0.02400
C456        C  0.71233424  0.09752845  0.47878095    -0.33400
H457        H  0.69104328  0.01997374  0.43456217     0.13500
H458        H  0.66279800  0.96015173  0.44847689     0.13300
H459        H  0.63132203  0.97683601  0.56203010     0.13200
H460        H  0.65957967  0.03669763  0.54810495     0.12200
C461        C  0.67943609  0.64789290  0.09667235     0.18500
C462        C  0.68325444  0.67343541  0.12191484    -0.10600
C463        C  0.66655105  0.69069648  0.11388850    -0.11400
C464        C  0.64594149  0.68261018  0.08053654     0.20100
C465        C  0.64166215  0.65667891  0.05569983    -0.13500
C466        C  0.65836307  0.63941222  0.06373021    -0.11800
C467        C  0.62995347  0.70148585  0.07136093     0.01100
C468        C  0.61750820  0.71832661  0.06487757    -0.31800
C469        C  0.69843171  0.63163141  0.10329773     0.02400
C470        C  0.71568582  0.61928803  0.10685076    -0.33400
H471        H  0.69952400  0.68035163  0.14736479     0.13500
H472        H  0.67008962  0.71067509  0.13338463     0.13300
H473        H  0.62582829  0.65013776  0.02987150     0.13200
H474        H  0.65526246  0.61980458  0.04386422     0.12200
C475        C  0.67889699  0.03364573  0.99138767     0.18500
C476        C  0.65510773  0.02041545  0.02166454    -0.10600
C477        C  0.63796456  0.98623696  0.02909523    -0.11400
C478        C  0.64451696  0.96503540  0.00631053     0.20100
C479        C  0.66806644  0.97827789  0.97584030    -0.13500
C480        C  0.68516916  0.01237835  0.96842625    -0.11800
C481        C  0.62769186  0.92982386  0.01424260     0.01100
C482        C  0.61519012  0.90022777  0.01885636    -0.31800
C483        C  0.69782065  0.06902661  0.98476739     0.02400
C484        C  0.71505943  0.09861706  0.98020254    -0.33400
H485        H  0.65006147  0.03654091  0.03978668     0.13500
H486        H  0.61987401  0.97642025  0.05274250     0.13300
H487        H  0.67343330  0.96224422  0.95798685     0.13200
H488        H  0.70352981  0.02218906  0.94506858     0.12200
C489        C  0.62533999  0.81225941  0.74906630     0.18500
C490        C  0.61794653  0.78271567  0.76834087    -0.10600
C491        C  0.61807864  0.78126758  0.80984669    -0.11400
C492        C  0.62565392  0.80937229  0.83245932     0.20100
C493        C  0.63400652  0.83919030  0.81318048    -0.13500
C494        C  0.63385519  0.84063463  0.77162977    -0.11800
C495        C  0.62175691  0.80680565  0.87510160     0.01100
C496        C  0.61497475  0.80433968  0.91003298    -0.31800
C497        C  0.62136077  0.81243497  0.70653822     0.02400
C498        C  0.61436470  0.80909370  0.67164511    -0.33400
H499        H  0.61106969  0.76051542  0.75130773     0.13500
H500        H  0.61126990  0.75799671  0.82428140     0.13300
H501        H  0.63961393  0.86104093  0.83026347     0.13200
H502        H  0.63937723  0.86355217  0.75718665     0.12200
C503        C  0.61604467  0.80896982  0.24933506     0.18500
C504        C  0.60719880  0.77869611  0.26772284    -0.10600
C505        C  0.60684222  0.77636002  0.30917774    -0.11400
C506        C  0.61537870  0.80430807  0.33259059     0.20100
C507        C  0.62483939  0.83472349  0.31419819    -0.13500
C508        C  0.62517383  0.83705540  0.27272336    -0.11800
C509        C  0.61202645  0.80134198  0.37525030     0.01100
C510        C  0.60651736  0.79942828  0.41049313    -0.31800
C511        C  0.61367098  0.81046663  0.20670915     0.02400
C512        C  0.60852287  0.80822375  0.17137266    -0.33400
H513        H  0.59985743  0.75671957  0.25001699     0.13500
H514        H  0.59919280  0.75264925  0.32293604     0.13300
H515        H  0.63121054  0.85646730  0.33192487     0.13200
H516        H  0.63183279  0.86052983  0.25896257     0.12200
C517        C  0.96335584  0.31774561  0.92693644     0.18500
C518        C  0.97911532  0.29958775  0.91880130    -0.10600
C519        C  0.01308914  0.31591906  0.91108141    -0.11400
C520        C  0.03162166  0.35054768  0.91136853     0.20100
C521        C  0.01593552  0.36879059  0.91966431    -0.13500
C522        C  0.98186629  0.35241299  0.92738733    -0.11800
C523        C  0.06674570  0.36708703  0.90380596     0.01100
C524        C  0.09620444  0.37952135  0.89872762    -0.31800
C525        C  0.92811651  0.30048214  0.93378294     0.02400
C526        C  0.89848112  0.28381339  0.93762847    -0.33400
H527        H  0.96512051  0.27283156  0.91826943     0.13500
H528        H  0.02491815  0.30150352  0.90486248     0.13300
H529        H  0.02997630  0.39553436  0.92013148     0.13200
H530        H  0.96996513  0.36677061  0.93355331     0.12200
C531        C  0.31439755  0.35097111  0.83662491     0.18500
C532        C  0.32712433  0.34170091  0.86869858    -0.10600
C533        C  0.34446081  0.32483907  0.86208380    -0.11400
C534        C  0.34926459  0.31707571  0.82334021     0.20100
C535        C  0.33670821  0.32652015  0.79124321    -0.13500
C536        C  0.31936904  0.34338837  0.79786013    -0.11800
C537        C  0.36619581  0.29864084  0.81671968     0.01100
C538        C  0.37927614  0.28206500  0.81250949    -0.31800
C539        C  0.29546521  0.36734266  0.84350010     0.02400
C540        C  0.27851007  0.37990714  0.84853782    -0.33400
H541        H  0.32340025  0.34723728  0.89880212     0.13500
H542        H  0.35387447  0.31760076  0.88723208     0.13300
H543        H  0.34006604  0.32060585  0.76117133     0.13200
H544        H  0.30958421  0.35025512  0.77274726     0.12200
C545        C  0.42380019  0.63172833  0.96378665     0.18500
C546        C  0.41218217  0.62581867  0.92462666    -0.10600
C547        C  0.38269383  0.59689553  0.91517545    -0.11400
C548        C  0.36463103  0.57371457  0.94480674     0.20100
C549        C  0.37636862  0.57947928  0.98392541    -0.13500
C550        C  0.40587703  0.60841408  0.99338029    -0.11800
C551        C  0.33383860  0.54443355  0.93492870     0.01100
C552        C  0.30812539  0.52097531  0.92412150    -0.31800
C553        C  0.45328867  0.66223733  0.97404677     0.02400
C554        C  0.47668973  0.68787118  0.98519896    -0.33400
H555        H  0.42569332  0.64368959  0.90154357     0.13500
H556        H  0.37382908  0.59274299  0.88483154     0.13300
H557        H  0.36261519  0.56180642  0.00709281     0.13200
H558        H  0.41452239  0.61277976  0.02381729     0.12200
C559        C  0.96216852  0.31584070  0.42480978     0.18500
C560        C  0.97455509  0.33721017  0.39211314    -0.10600
C561        C  0.00848395  0.35391858  0.38369997    -0.11400
C562        C  0.03022449  0.34930450  0.40794445     0.20100
C563        C  0.01783449  0.32803016  0.44071372    -0.13500
C564        C  0.98393639  0.31133616  0.44911829    -0.11800
C565        C  0.06517659  0.36609101  0.39929061     0.01100
C566        C  0.09467324  0.37905360  0.39417784    -0.31800
C567        C  0.92706220  0.29757195  0.43249641     0.02400
C568        C  0.89750986  0.28098155  0.43714449    -0.33400
H569        H  0.95794284  0.34075581  0.37292307     0.13500
H570        H  0.01770199  0.37022271  0.35829304     0.13300
H571        H  0.03438592  0.32420296  0.45968498     0.13200
H572        H  0.97469554  0.29477112  0.47429284     0.12200
C573        C  0.31399509  0.35029243  0.34401693     0.18500
C574        C  0.33498866  0.34946233  0.37318406    -0.10600
C575        C  0.35218334  0.33252959  0.36606989    -0.11400
C576        C  0.34852329  0.31634630  0.32975956     0.20100
C577        C  0.32755648  0.31722509  0.30064403    -0.13500
C578        C  0.31039195  0.33412886  0.30774495    -0.11800
C579        C  0.36550164  0.29812178  0.32264582     0.01100
C580        C  0.37849561  0.28165589  0.31722514    -0.31800
C581        C  0.29564767  0.36713273  0.35123375     0.02400
C582        C  0.27886936  0.37995123  0.35524450    -0.33400
H583        H  0.33792309  0.36171506  0.40138142     0.13500
H584        H  0.36817894  0.33190623  0.38895670     0.13300
H585        H  0.32434030  0.30470697  0.27257972     0.13200
H586        H  0.29415133  0.33444938  0.28497479     0.12200
C587        C  0.17937613  0.37388035  0.66642248     0.18500
C588        C  0.15620219  0.37696893  0.64316084    -0.10600
C589        C  0.15847105  0.37741738  0.60168779    -0.11400
C590        C  0.18393866  0.37481757  0.58312513     0.20100
C591        C  0.20655543  0.37078232  0.60635498    -0.13500
C592        C  0.20426745  0.37030324  0.64784166    -0.11800
C593        C  0.18813539  0.37880585  0.54059595     0.01100
C594        C  0.19125679  0.38505905  0.50549618    -0.31800
C595        C  0.17963359  0.37750560  0.70904852     0.02400
C596        C  0.18349963  0.38395061  0.74408517    -0.33400
H597        H  0.13702130  0.38003556  0.65705720     0.13500
H598        H  0.14093119  0.38075595  0.58412754     0.13300
H599        H  0.22647113  0.36895243  0.59247737     0.13200
H600        H  0.22252339  0.36817295  0.66543800     0.12200
C601        C  0.18785209  0.37444010  0.08304589     0.18500
C602        C  0.16073911  0.37418131  0.10128959    -0.10600
C603        C  0.15824003  0.37370127  0.14274821    -0.11400
C604        C  0.18283923  0.37345350  0.16630237     0.20100
C605        C  0.20961690  0.37306329  0.14804832    -0.13500
C606        C  0.21213137  0.37357304  0.10659341    -0.11800
C607        C  0.18224945  0.37642215  0.20895030     0.01100
C608        C  0.18546543  0.38240901  0.24410529    -0.31800
C609        C  0.19179712  0.37802237  0.04046194     0.02400
C610        C  0.19462341  0.38407551  0.00531631    -0.33400
H611        H  0.14193984  0.37516471  0.08347985     0.13500
H612        H  0.13760746  0.37436374  0.15639603     0.13300
H613        H  0.22899996  0.37322672  0.16587721     0.13200
H614        H  0.23336301  0.37408477  0.09296940     0.12200
C615        C  0.41864244  0.63251640  0.47125292     0.18500
C616        C  0.40635587  0.62828122  0.43249280    -0.10600
C617        C  0.37769496  0.59900435  0.42181289    -0.11400
C618        C  0.36110273  0.57377366  0.44982509     0.20100
C619        C  0.37353822  0.57784375  0.48852629    -0.13500
C620        C  0.40224378  0.60715820  0.49921817    -0.11800
C621        C  0.33097190  0.54422492  0.43873688     0.01100
C622        C  0.30571048  0.52086288  0.42670719    -0.31800
C623        C  0.44750681  0.66315487  0.48263937     0.02400
C624        C  0.47093615  0.68872224  0.49387683    -0.33400
H625        H  0.41874351  0.64770678  0.41064622     0.13500
H626        H  0.36830022  0.59616593  0.39183550     0.13300
H627        H  0.36091849  0.55854720  0.51046337     0.13200
H628        H  0.41146208  0.61017457  0.52930376     0.12200
C629        C  0.34936183  0.03365273  0.75906973     0.18500
C630        C  0.36286962  0.01376337  0.76912436    -0.10600
C631        C  0.34537405  0.97981198  0.76076824    -0.11400
C632        C  0.31435047  0.96565666  0.74223834     0.20100
C633        C  0.30095606  0.98559468  0.73208457    -0.13500
C634        C  0.31840920  0.01947096  0.74043148    -0.11800
C635        C  0.29566185  0.93056951  0.73482099     0.01100
C636        C  0.27864976  0.90107509  0.73023900    -0.31800
C637        C  0.36704832  0.06862977  0.76741600     0.02400
C638        C  0.38010597  0.09814983  0.77224047    -0.33400
H639        H  0.38680932  0.02445247  0.78348640     0.13500
H640        H  0.35590239  0.96461410  0.76893257     0.13300
H641        H  0.27693052  0.97491888  0.71793466     0.13200
H642        H  0.30773889  0.03458428  0.73246140     0.12200
C643        C  0.96273694  0.65141278  0.65976228     0.18500
C644        C  0.98221217  0.68580648  0.65544625    -0.10600
C645        C  0.01597323  0.70192298  0.66456018    -0.11400
C646        C  0.03055485  0.68383529  0.67813073     0.20100
C647        C  0.01107589  0.64943932  0.68264037    -0.13500
C648        C  0.97725447  0.63329733  0.67352296    -0.11800
C649        C  0.06559779  0.70071024  0.68641074     0.01100
C650        C  0.09519276  0.71683800  0.69114875    -0.31800
C651        C  0.92779386  0.63497311  0.65094880     0.02400
C652        C  0.89833706  0.62197465  0.64533671    -0.33400
H653        H  0.97131829  0.70012548  0.64507239     0.13500
H654        H  0.03075786  0.72853368  0.66087524     0.13300
H655        H  0.02200763  0.63516228  0.69302525     0.13200
H656        H  0.96242951  0.60669093  0.67721075     0.12200
C657        C  0.20974475  0.57807988  0.80798469     0.18500
C658        C  0.18591445  0.58475942  0.82366036    -0.10600
C659        C  0.18652483  0.61418592  0.81384989    -0.11400
C660        C  0.21103019  0.63709401  0.78840865     0.20100
C661        C  0.23517492  0.63065877  0.77329308    -0.13500
C662        C  0.23456165  0.60126105  0.78308502    -0.11800
C663        C  0.21083085  0.66660863  0.77651560     0.01100
C664        C  0.21145541  0.69110360  0.76399276    -0.31800
C665        C  0.20905263  0.54769851  0.81775268     0.02400
C666        C  0.20963807  0.52311987  0.82741649    -0.33400
H667        H  0.16675588  0.56713896  0.84320890     0.13500
H668        H  0.16775675  0.61889578  0.82571326     0.13300
H669        H  0.25425721  0.64819866  0.75359459     0.13200
H670        H  0.25325135  0.59651013  0.77105119     0.12200
C671        C  0.36153003  0.78804756  0.63632199     0.18500
C672        C  0.38790802  0.81600388  0.61869458    -0.10600
C673        C  0.41743129  0.81644019  0.61004131    -0.11400
C674        C  0.42078697  0.78897467  0.61909051     0.20100
C675        C  0.39438498  0.76100728  0.63668269    -0.13500
C676        C  0.36487725  0.76056909  0.64532539    -0.11800
C677        C  0.45072637  0.78892426  0.60882397     0.01100
C678        C  0.47461797  0.78769766  0.59758097    -0.31800
C679        C  0.33139394  0.78777994  0.64633740     0.02400
C680        C  0.30627602  0.78660900  0.65746753    -0.33400
H681        H  0.38568017  0.83743262  0.61172439     0.13500
H682        H  0.43756417  0.83811022  0.59617837     0.13300
H683        H  0.39656196  0.73953178  0.64356201     0.13200
H684        H  0.34471561  0.73885245  0.65908622     0.12200
C685        C  0.35122942  0.03476622  0.25836002     0.18500
C686        C  0.36172615  0.02154947  0.22806470    -0.10600
C687        C  0.34485984  0.98735389  0.22102694    -0.11400
C688        C  0.31736974  0.96615720  0.24421295     0.20100
C689        C  0.30721181  0.97934938  0.27486080    -0.13500
C690        C  0.32405038  0.01349163  0.28188612    -0.11800
C691        C  0.29897660  0.93102361  0.23624842     0.01100
C692        C  0.28196934  0.90149993  0.23127593    -0.31800
C693        C  0.36733952  0.07014977  0.26427188     0.02400
C694        C  0.37947186  0.09973058  0.26824719    -0.33400
H695        H  0.38262571  0.03768978  0.20957734     0.13500
H696        H  0.35299954  0.97751688  0.19724600     0.13300
H697        H  0.28602764  0.96328508  0.29301195     0.13200
H698        H  0.31559014  0.02333733  0.30531650     0.12200
C699        C  0.03325555  0.68135481  0.17305312     0.18500
C700        C  0.02223876  0.67109067  0.13410974    -0.10600
C701        C  0.98832716  0.65435684  0.12540831    -0.11400
C702        C  0.96520942  0.64777935  0.15561604     0.20100
C703        C  0.97623366  0.65757894  0.19462782    -0.13500
C704        C  0.01010047  0.67430050  0.20331491    -0.11800
C705        C  0.93028565  0.63203442  0.14676621     0.01100
C706        C  0.90079830  0.61996955  0.14207867    -0.31800
C707        C  0.06825009  0.70042337  0.18156739     0.02400
C708        C  0.09765178  0.71776279  0.18708536    -0.33400
H709        H  0.03986965  0.67647488  0.11038974     0.13500
H710        H  0.98019146  0.64698968  0.09512799     0.13300
H711        H  0.95865358  0.65271189  0.21825719     0.13200
H712        H  0.01823216  0.68216639  0.23348537     0.12200
C713        C  0.18641252  0.81266741  0.91880766     0.18500
C714        C  0.15749887  0.80020965  0.94157670    -0.10600
C715        C  0.15952864  0.80304650  0.98304281    -0.11400
C716        C  0.19046770  0.81839285  0.00193371     0.20100
C717        C  0.21933800  0.83145270  0.97905831    -0.13500
C718        C  0.21731408  0.82862801  0.93769468    -0.11800
C719        C  0.19264623  0.81788372  0.04464588     0.01100
C720        C  0.19473459  0.81381294  0.07970558    -0.31800
C721        C  0.18483308  0.80786122  0.87635492     0.02400
C722        C  0.18746681  0.80448014  0.84123561    -0.33400
H723        H  0.13346386  0.78769460  0.92740150     0.13500
H724        H  0.13699510  0.79250604  0.00039537     0.13300
H725        H  0.24337445  0.84301614  0.99324184     0.13200
H726        H  0.23985938  0.83823208  0.92048086     0.12200
C727        C  0.18729084  0.81135451  0.50198861     0.18500
C728        C  0.19894179  0.84028572  0.47934658    -0.10600
C729        C  0.19763532  0.83848155  0.43775708    -0.11400
C730        C  0.18463262  0.80774751  0.41862600     0.20100
C731        C  0.17260446  0.77887447  0.44135232    -0.13500
C732        C  0.17389993  0.78067135  0.48279534    -0.11800
C733        C  0.18568685  0.80579495  0.37589226     0.01100
C734        C  0.18925080  0.80363535  0.34069053    -0.31800
C735        C  0.19024531  0.81267845  0.54472855     0.02400
C736        C  0.19234576  0.80952288  0.58004185    -0.33400
H737        H  0.20951964  0.86418020  0.49375204     0.13500
H738        H  0.20732025  0.86104612  0.42055736     0.13300
H739        H  0.16280929  0.75501785  0.42702815     0.13200
H740        H  0.16498553  0.75813458  0.49989036     0.12200
C741        C  0.20726802  0.63357864  0.28103103     0.18500
C742        C  0.23311834  0.63465503  0.30326805    -0.10600
C743        C  0.23313151  0.60541881  0.31224318    -0.11400
C744        C  0.20731807  0.57486061  0.29896398     0.20100
C745        C  0.18131653  0.57372174  0.27693035    -0.13500
C746        C  0.18130987  0.60300914  0.26792924    -0.11800
C747        C  0.20749096  0.54486270  0.30875779     0.01100
C748        C  0.20896387  0.52104312  0.31986650    -0.31800
C749        C  0.20825079  0.66393421  0.27016156     0.02400
C750        C  0.21048591  0.68951301  0.25886530    -0.33400
H751        H  0.25342170  0.65812930  0.31339706     0.13500
H752        H  0.25328128  0.60664156  0.32941566     0.13300
H753        H  0.16113044  0.55024679  0.26662248     0.13200
H754        H  0.16128686  0.60185416  0.25055175     0.12200
C755        C  0.42111476  0.78823288  0.11217293     0.18500
C756        C  0.41892616  0.81662953  0.10493162    -0.10600
C757        C  0.39019511  0.81723954  0.11514812    -0.11400
C758        C  0.36350178  0.78941242  0.13254961     0.20100
C759        C  0.36584261  0.76115677  0.14012104    -0.13500
C760        C  0.39453714  0.76054942  0.12992420    -0.11800
C761        C  0.33382672  0.78974953  0.14326358     0.01100
C762        C  0.30871560  0.78838693  0.15471430    -0.31800
C763        C  0.45000383  0.78695380  0.09998570     0.02400
C764        C  0.47324101  0.78495666  0.08790115    -0.33400
H765        H  0.43927710  0.83814458  0.09111006     0.13500
H766        H  0.38874506  0.83927745  0.10934187     0.13300
H767        H  0.34543745  0.73955787  0.15374722     0.13200
H768        H  0.39588503  0.73842984  0.13555721     0.12200
loop_ 
_geom_bond_atom_site_label_1 
_geom_bond_atom_site_label_2 
_geom_bond_distance 
_geom_bond_site_symmetry_2 
_ccdc_geom_bond_type 
Fe1          O17   2.058       .  S
Fe1           O7   2.072       .  S
Fe1          O14   2.076       .  S
Fe1           O6   2.053       .  S
Fe1          O12   1.981       .  S
Fe2           O5   2.054       .  S
Fe2           O9   2.080       .  S
Fe2          O13   2.056       .  S
Fe2          O18   2.075       .  S
Fe2          O12   1.981       .  S
Fe3          O21   2.087       .  S
Fe3           O8   2.068       .  S
Fe3          O15   2.070       .  S
Fe3           O4   2.087       .  S
Fe3          O12   1.984       .  S
O4           C11   1.271       .  A
O5           C19   1.265       .  A
O6           C11   1.266       .  A
O7           C10   1.268       .  A
O8           C20   1.268       .  A
O9           C22   1.270       .  A
C10          O15   1.268       .  A
C10         C708   1.441       .  S
C11         C720   1.439       .  S
O13          C16   1.265       .  A
O14          C16   1.268       .  A
C16         C762   1.436       .  S
O17          C22   1.266       .  A
O18          C20   1.269       .  A
C19          O21   1.271       .  A
C19         C734   1.440       .  S
C20         C692   1.441       .  S
C22         C750   1.438       .  S
Fe23         O39   2.059       .  S
Fe23         O29   2.077       .  S
Fe23         O36   2.080       .  S
Fe23         O28   2.055       .  S
Fe23         O34   1.977       .  S
Fe24         O27   2.054       .  S
Fe24         O31   2.073       .  S
Fe24         O35   2.057       .  S
Fe24         O40   2.070       .  S
Fe24         O34   1.977       .  S
Fe25         O43   2.089       .  S
Fe25         O30   2.062       .  S
Fe25         O37   2.063       .  S
Fe25         O26   2.090       .  S
Fe25         O34   1.981       .  S
O26          C33   1.272       .  A
O27          C41   1.266       .  A
O28          C33   1.267       .  A
O29          C32   1.269       .  A
O30          C42   1.267       .  A
O31          C44   1.268       .  A
C32          O37   1.267       .  A
C32         C650   1.440       .  S
C33         C736   1.440       .  S
O35          C38   1.266       .  A
O36          C38   1.270       .  A
C38         C680   1.437       .  S
O39          C44   1.266       .  A
O40          C42   1.267       .  A
C41          O43   1.272       .  A
C41         C722   1.439       .  S
C42         C636   1.436       .  S
C44         C664   1.435       .  S
Fe45         O61   2.057       .  S
Fe45         O51   2.079       .  S
Fe45         O58   2.082       .  S
Fe45         O50   2.054       .  S
Fe45         O56   1.979       .  S
Fe46         O49   2.055       .  S
Fe46         O53   2.079       .  S
Fe46         O57   2.057       .  S
Fe46         O62   2.075       .  S
Fe46         O56   1.979       .  S
Fe47         O65   2.089       .  S
Fe47         O52   2.064       .  S
Fe47         O59   2.064       .  S
Fe47         O48   2.091       .  S
Fe47         O56   1.981       .  S
O48          C55   1.273       .  A
O49          C63   1.266       .  A
O50          C55   1.266       .  A
O51          C54   1.269       .  A
O52          C64   1.267       .  A
O53          C66   1.270       .  A
C54          O59   1.267       .  A
C54         C582   1.441       .  S
C55         C608   1.440       .  S
O57          C60   1.265       .  A
O58          C60   1.270       .  A
C60         C748   1.439       .  S
O61          C66   1.266       .  A
O62          C64   1.269       .  A
C63          O65   1.272       .  A
C63         C594   1.441       .  S
C64         C566   1.439       .  S
C66         C622   1.437       .  S
Fe67         O83   2.053       .  S
Fe67         O73   2.077       .  S
Fe67         O80   2.081       .  S
Fe67         O72   2.051       .  S
Fe67         O78   1.975       .  S
Fe68         O71   2.055       .  S
Fe68         O75   2.083       .  S
Fe68         O79   2.056       .  S
Fe68         O84   2.084       .  S
Fe68         O78   1.973       .  S
Fe69         O87   2.092       .  S
Fe69         O74   2.068       .  S
Fe69         O81   2.066       .  S
Fe69         O70   2.093       .  S
Fe69         O78   1.976       .  S
O70          C77   1.273       .  A
O71          C85   1.267       .  A
O72          C77   1.265       .  A
O73          C76   1.270       .  A
O74          C86   1.268       .  A
O75          C88   1.270       .  A
C76          O81   1.268       .  A
C76         C524   1.439       .  S
C77         C610   1.440   1_556  S
O79          C82   1.267       .  A
O80          C82   1.271       .  A
C82         C552   1.436       .  S
O83          C88   1.265       .  A
O84          C86   1.271       .  A
C85          O87   1.273       .  A
C85         C596   1.441       .  S
C86         C540   1.445       .  S
C88         C666   1.437       .  S
Fe89        O105   2.056   1_556  S
Fe89         O95   2.081   1_556  S
Fe89        O102   2.084       .  S
Fe89         O94   2.054       .  S
Fe89        O100   1.976   1_556  S
Fe90         O93   2.051       .  S
Fe90         O97   2.078       .  S
Fe90        O101   2.054       .  S
Fe90        O106   2.076       .  S
Fe90        O100   1.975       .  S
Fe91        O109   2.092       .  S
Fe91         O96   2.069       .  S
Fe91        O103   2.070       .  S
Fe91         O92   2.092   1_554  S
Fe91        O100   1.978       .  S
O92          C99   1.273       .  A
O93         C107   1.265       .  A
O94          C99   1.266       .  A
O95          C98   1.270       .  A
O96         C108   1.269       .  A
O97         C110   1.269       .  A
C98         O103   1.269       .  A
C98         C482   1.444       .  S
C99         C496   1.441       .  S
O101        C104   1.265       .  A
O102        C104   1.271   1_556  A
C104        C554   1.437   1_554  S
O105        C110   1.266       .  A
O106        C108   1.269       .  A
C107        O109   1.273       .  A
C107        C512   1.439       .  S
C108        C468   1.442       .  S
C110        C764   1.436       .  S
Fe111       O127   2.058       .  S
Fe111       O117   2.079       .  S
Fe111       O124   2.082       .  S
Fe111       O116   2.055       .  S
Fe111       O122   1.977       .  S
Fe112       O115   2.054       .  S
Fe112       O119   2.079       .  S
Fe112       O123   2.054       .  S
Fe112       O128   2.075       .  S
Fe112       O122   1.978       .  S
Fe113       O131   2.091       .  S
Fe113       O118   2.066       .  S
Fe113       O125   2.070       .  S
Fe113       O114   2.088       .  S
Fe113       O122   1.981       .  S
O114        C121   1.272       .  A
O115        C129   1.266       .  A
O116        C121   1.266       .  A
O117        C120   1.270       .  A
O118        C130   1.267       .  A
O119        C132   1.269       .  A
C120        O125   1.269       .  A
C120        C454   1.443       .  S
C121        C510   1.440       .  S
O123        C126   1.265       .  A
O124        C126   1.270       .  A
C126        C624   1.437       .  S
O127        C132   1.266       .  A
O128        C130   1.269       .  A
C129        O131   1.273       .  A
C129        C498   1.440       .  S
C130        C442   1.439       .  S
C132        C678   1.438       .  S
Fe133       O149   2.056       .  S
Fe133       O139   2.072       .  S
Fe133       O146   2.073       .  S
Fe133       O138   2.054       .  S
Fe133       O144   1.982       .  S
Fe134       O137   2.055       .  S
Fe134       O141   2.080       .  S
Fe134       O145   2.055       .  S
Fe134       O150   2.077       .  S
Fe134       O144   1.982       .  S
Fe135       O153   2.089       .  S
Fe135       O140   2.067       .  S
Fe135       O147   2.065       .  S
Fe135       O136   2.088       .  S
Fe135       O144   1.984       .  S
O136        C143   1.272       .  A
O137        C151   1.267       .  A
O138        C143   1.265       .  A
O139        C142   1.268       .  A
O140        C152   1.267       .  A
O141        C154   1.269       .  A
C142        O147   1.267       .  A
C142        C568   1.438       .  S
C143        C398   1.441       .  S
O145        C148   1.266       .  A
O146        C148   1.269       .  A
C148        C428   1.433       .  S
O149        C154   1.265       .  A
O150        C152   1.268       .  A
C151        O153   1.273       .  A
C151        C384   1.440       .  S
C152        C456   1.443       .  S
C154        C412   1.438       .  S
Fe155       O171   2.056       .  S
Fe155       O161   2.074       .  S
Fe155       O168   2.076       .  S
Fe155       O160   2.052       .  S
Fe155       O166   1.982       .  S
Fe156       O159   2.054   1_556  S
Fe156       O163   2.078   1_556  S
Fe156       O167   2.055       .  S
Fe156       O172   2.077       .  S
Fe156       O166   1.981       .  S
Fe157       O175   2.088   1_556  S
Fe157       O162   2.071       .  S
Fe157       O169   2.067       .  S
Fe157       O158   2.089       .  S
Fe157       O166   1.984       .  S
O158        C165   1.271       .  A
O159        C173   1.266       .  A
O160        C165   1.264       .  A
O161        C164   1.269       .  A
O162        C174   1.268       .  A
O163        C176   1.269   1_554  A
C164        O169   1.268       .  A
C164        C526   1.439       .  S
C165        C386   1.440       .  S
O167        C170   1.266       .  A
O168        C170   1.270       .  A
C170        C370   1.434       .  S
O171        C176   1.264       .  A
O172        C174   1.269       .  A
C173        O175   1.272       .  A
C173        C400   1.440       .  S
C174        C484   1.444       .  S
C176        C358   1.438   1_556  S
Fe177       O193   2.059       .  S
Fe177       O183   2.076       .  S
Fe177       O190   2.079       .  S
Fe177       O182   2.057       .  S
Fe177       O188   1.981       .  S
Fe178       O181   2.055       .  S
Fe178       O185   2.078       .  S
Fe178       O189   2.058       .  S
Fe178       O194   2.074       .  S
Fe178       O188   1.982       .  S
Fe179       O197   2.088       .  S
Fe179       O184   2.069       .  S
Fe179       O191   2.068       .  S
Fe179       O180   2.088       .  S
Fe179       O188   1.985       .  S
O180        C187   1.272       .  A
O181        C195   1.266       .  A
O182        C187   1.266       .  A
O183        C186   1.269       .  A
O184        C196   1.268       .  A
O185        C198   1.269       .  A
C186        O191   1.268       .  A
C186        C470   1.441       .  S
C187        C316   1.442   1_554  S
O189        C192   1.266       .  A
O190        C192   1.270       .  A
C192        C356   1.438       .  S
O193        C198   1.266       .  A
O194        C196   1.269       .  A
C195        O197   1.272       .  A
C195        C328   1.441       .  S
C196        C706   1.441       .  S
C198        C344   1.439       .  S
Fe199       O215   2.063       .  S
Fe199       O205   2.069       .  S
Fe199       O212   2.072       .  S
Fe199       O204   2.059       .  S
Fe199       O210   1.983       .  S
Fe200       O203   2.057       .  S
Fe200       O207   2.073       .  S
Fe200       O211   2.057       .  S
Fe200       O216   2.070       .  S
Fe200       O210   1.984       .  S
Fe201       O219   2.087       .  S
Fe201       O206   2.068       .  S
Fe201       O213   2.069       .  S
Fe201       O202   2.087       .  S
Fe201       O210   1.985       .  S
O202        C209   1.272       .  A
O203        C217   1.267       .  A
O204        C209   1.267       .  A
O205        C208   1.267       .  A
O206        C218   1.267       .  A
O207        C220   1.268       .  A
C208        O213   1.268       .  A
C208        C652   1.440       .  S
C209        C314   1.442       .  S
O211        C214   1.266       .  A
O212        C214   1.268       .  A
C214        C300   1.434       .  S
O215        C220   1.266       .  A
O216        C218   1.267       .  A
C217        O219   1.272       .  A
C217        C330   1.440       .  S
C218        C440   1.440       .  S
C220        C414   1.438       .  S
Fe221       O237   2.052       .  S
Fe221       O227   2.079       .  S
Fe221       O234   2.084       .  S
Fe221       O226   2.051       .  S
Fe221       O232   1.975       .  S
Fe222       O225   2.052       .  S
Fe222       O229   2.079       .  S
Fe222       O233   2.056       .  S
Fe222       O238   2.079       .  S
Fe222       O232   1.974       .  S
Fe223       O241   2.092       .  S
Fe223       O228   2.066       .  S
Fe223       O235   2.066       .  S
Fe223       O224   2.093       .  S
Fe223       O232   1.977       .  S
O224        C231   1.273       .  A
O225        C239   1.265       .  A
O226        C231   1.266       .  A
O227        C230   1.269       .  A
O228        C240   1.268       .  A
O229        C242   1.270       .  A
C230        O235   1.268       .  A
C230        C694   1.442       .  S
C231        C286   1.440       .  S
O233        C236   1.266       .  A
O234        C236   1.270       .  A
C236        C342   1.439       .  S
O237        C242   1.265       .  A
O238        C240   1.270       .  A
C239        O241   1.273       .  A
C239        C272   1.440       .  S
C240        C580   1.441       .  S
C242        C426   1.433       .  S
Fe243       O259   2.053       .  S
Fe243       O249   2.068       .  S
Fe243       O256   2.074       .  S
Fe243       O248   2.053       .  S
Fe243       O254   1.983       .  S
Fe244       O247   2.054       .  S
Fe244       O251   2.078       .  S
Fe244       O255   2.055       .  S
Fe244       O260   2.079       .  S
Fe244       O254   1.981       .  S
Fe245       O263   2.087       .  S
Fe245       O250   2.069       .  S
Fe245       O257   2.064       .  S
Fe245       O246   2.090       .  S
Fe245       O254   1.984       .  S
O246        C253   1.273       .  A
O247        C261   1.266       .  A
O248        C253   1.266       .  A
O249        C252   1.267       .  A
O250        C262   1.268       .  A
O251        C264   1.269       .  A
C252        O257   1.266       .  A
C252        C638   1.437       .  S
C253        C274   1.440       .  S
O255        C258   1.265       .  A
O256        C258   1.268       .  A
C258        C302   1.434       .  S
O259        C264   1.265       .  A
O260        C262   1.269       .  A
C261        O263   1.272       .  A
C261        C288   1.440       .  S
C262        C538   1.445       .  S
C264        C372   1.435       .  S
C265        C273   1.445       .  S
C265        C266   1.401       .  A
C265        C270   1.403       .  A
C266        C267   1.401       .  A
C266        H275   1.083       .  S
C267        C268   1.403       .  A
C267        H276   1.084       .  S
C268        C271   1.446       .  S
C268        C269   1.402       .  A
C269        C270   1.402       .  A
C269        H277   1.083       .  S
C270        H278   1.084       .  S
C271        C272   1.209       .  T
C273        C274   1.209       .  T
C279        C287   1.445   1_554  S
C279        C280   1.401       .  A
C279        C284   1.403       .  A
C280        C281   1.401       .  A
C280        H289   1.083       .  S
C281        C282   1.403       .  A
C281        H290   1.083       .  S
C282        C285   1.445       .  S
C282        C283   1.401       .  A
C283        C284   1.401       .  A
C283        H291   1.083       .  S
C284        H292   1.083       .  S
C285        C286   1.209       .  T
C287        C288   1.209       .  T
C293        C301   1.440       .  S
C293        C294   1.401       .  A
C293        C298   1.401       .  A
C294        C295   1.399       .  A
C294        H303   1.083       .  S
C295        C296   1.401       .  A
C295        H304   1.083       .  S
C296        C299   1.439       .  S
C296        C297   1.401       .  A
C297        C298   1.398       .  A
C297        H305   1.083       .  S
C298        H306   1.084       .  S
C299        C300   1.206       .  T
C301        C302   1.206       .  T
C307        C315   1.447       .  S
C307        C308   1.401       .  A
C307        C312   1.404       .  A
C308        C309   1.401       .  A
C308        H317   1.083       .  S
C309        C310   1.403       .  A
C309        H318   1.084       .  S
C310        C313   1.447       .  S
C310        C311   1.402       .  A
C311        C312   1.402       .  A
C311        H319   1.083       .  S
C312        H320   1.084       .  S
C313        C314   1.210       .  T
C315        C316   1.210       .  T
C321        C329   1.446       .  S
C321        C322   1.402       .  A
C321        C326   1.403       .  A
C322        C323   1.401       .  A
C322        H331   1.083       .  S
C323        C324   1.403       .  A
C323        H332   1.084       .  S
C324        C327   1.446       .  S
C324        C325   1.402       .  A
C325        C326   1.401       .  A
C325        H333   1.083       .  S
C326        H334   1.084       .  S
C327        C328   1.209       .  T
C329        C330   1.209       .  T
C335        C343   1.444       .  S
C335        C336   1.403       .  A
C335        C340   1.401       .  A
C336        C337   1.401       .  A
C336        H345   1.082       .  S
C337        C338   1.401       .  A
C337        H346   1.084       .  S
C338        C341   1.444       .  S
C338        C339   1.403       .  A
C339        C340   1.401       .  A
C339        H347   1.082       .  S
C340        H348   1.084       .  S
C341        C342   1.208       .  T
C343        C344   1.208       .  T
C349        C357   1.443       .  S
C349        C350   1.401       .  A
C349        C354   1.403       .  A
C350        C351   1.400       .  A
C350        H359   1.083       .  S
C351        C352   1.403       .  A
C351        H360   1.083       .  S
C352        C355   1.443       .  S
C352        C353   1.401       .  A
C353        C354   1.400       .  A
C353        H361   1.084   1_554  S
C354        H362   1.083   1_554  S
C355        C356   1.208       .  T
C357        C358   1.208       .  T
C363        C371   1.440       .  S
C363        C364   1.400       .  A
C363        C368   1.403       .  A
C364        C365   1.398       .  A
C364        H373   1.083       .  S
C365        C366   1.402       .  A
C365        H374   1.083       .  S
C366        C369   1.439       .  S
C366        C367   1.400       .  A
C367        C368   1.400       .  A
C367        H375   1.083       .  S
C368        H376   1.083       .  S
C369        C370   1.205       .  T
C371        C372   1.206       .  T
C377        C385   1.446       .  S
C377        C378   1.403       .  A
C377        C382   1.402       .  A
C378        C379   1.400       .  A
C378        H387   1.084       .  S
C379        C380   1.401       .  A
C379        H388   1.083       .  S
C380        C383   1.445       .  S
C380        C381   1.403       .  A
C381        C382   1.402       .  A
C381        H389   1.083       .  S
C382        H390   1.083       .  S
C383        C384   1.209       .  T
C385        C386   1.210       .  T
C391        C399   1.446       .  S
C391        C392   1.403       .  A
C391        C396   1.402       .  A
C392        C393   1.400       .  A
C392        H401   1.084       .  S
C393        C394   1.401       .  A
C393        H402   1.083       .  S
C394        C397   1.446       .  S
C394        C395   1.404       .  A
C395        C396   1.402       .  A
C395        H403   1.084       .  S
C396        H404   1.083       .  S
C397        C398   1.210       .  T
C399        C400   1.209       .  T
C405        C413   1.443       .  S
C405        C406   1.402       .  A
C405        C410   1.402       .  A
C406        C407   1.401       .  A
C406        H415   1.084       .  S
C407        C408   1.403       .  A
C407        H416   1.083       .  S
C408        C411   1.444       .  S
C408        C409   1.401       .  A
C409        C410   1.400       .  A
C409        H417   1.083       .  S
C410        H418   1.083       .  S
C411        C412   1.208       .  T
C413        C414   1.208       .  T
C419        C427   1.438       .  S
C419        C420   1.401       .  A
C419        C424   1.401       .  A
C420        C421   1.397       .  A
C420        H429   1.083       .  S
C421        C422   1.401       .  A
C421        H430   1.083       .  S
C422        C425   1.438       .  S
C422        C423   1.402       .  A
C423        C424   1.399       .  A
C423        H431   1.083       .  S
C424        H432   1.083       .  S
C425        C426   1.205       .  T
C427        C428   1.205       .  T
C433        C441   1.444       .  S
C433        C434   1.401       .  A
C433        C438   1.403       .  A
C434        C435   1.399       .  A
C434        H443   1.084       .  S
C435        C436   1.401       .  A
C435        H444   1.083       .  S
C436        C439   1.444       .  S
C436        C437   1.403       .  A
C437        C438   1.403       .  A
C437        H445   1.084       .  S
C438        H446   1.083       .  S
C439        C440   1.209       .  T
C441        C442   1.209       .  T
C447        C455   1.447       .  S
C447        C448   1.402       .  A
C447        C452   1.403       .  A
C448        C449   1.402   1_545  A
C448        H457   1.084       .  S
C449        C450   1.403       .  A
C449        H458   1.083       .  S
C450        C453   1.448       .  S
C450        C451   1.402       .  A
C451        C452   1.402   1_565  A
C451        H459   1.084       .  S
C452        H460   1.083       .  S
C453        C454   1.211       .  T
C455        C456   1.211       .  T
C461        C469   1.446       .  S
C461        C462   1.402       .  A
C461        C466   1.403       .  A
C462        C463   1.401       .  A
C462        H471   1.082       .  S
C463        C464   1.403       .  A
C463        H472   1.084       .  S
C464        C467   1.447       .  S
C464        C465   1.402       .  A
C465        C466   1.402       .  A
C465        H473   1.082       .  S
C466        H474   1.084       .  S
C467        C468   1.210       .  T
C469        C470   1.210       .  T
C475        C483   1.448       .  S
C475        C476   1.404   1_556  A
C475        C480   1.402       .  A
C476        C477   1.404   1_545  A
C476        H485   1.084       .  S
C477        C478   1.403       .  A
C477        H486   1.083       .  S
C478        C481   1.449       .  S
C478        C479   1.402   1_554  A
C479        C480   1.401   1_565  A
C479        H487   1.084       .  S
C480        H488   1.083       .  S
C481        C482   1.211       .  T
C483        C484   1.211       .  T
C489        C497   1.446       .  S
C489        C490   1.403       .  A
C489        C494   1.402       .  A
C490        C491   1.401       .  A
C490        H499   1.084       .  S
C491        C492   1.402       .  A
C491        H500   1.083       .  S
C492        C495   1.446       .  S
C492        C493   1.403       .  A
C493        C494   1.402       .  A
C493        H501   1.084       .  S
C494        H502   1.083       .  S
C495        C496   1.210       .  T
C497        C498   1.209       .  T
C503        C511   1.445       .  S
C503        C504   1.403       .  A
C503        C508   1.401       .  A
C504        C505   1.401       .  A
C504        H513   1.084       .  S
C505        C506   1.402       .  A
C505        H514   1.083       .  S
C506        C509   1.445       .  S
C506        C507   1.403       .  A
C507        C508   1.402       .  A
C507        H515   1.084       .  S
C508        H516   1.083       .  S
C509        C510   1.209       .  T
C511        C512   1.209       .  T
C517        C525   1.444       .  S
C517        C518   1.402       .  A
C517        C522   1.402       .  A
C518        C519   1.399   1_655  A
C518        H527   1.082       .  S
C519        C520   1.401       .  A
C519        H528   1.085       .  S
C520        C523   1.444       .  S
C520        C521   1.403       .  A
C521        C522   1.402   1_455  A
C521        H529   1.082       .  S
C522        H530   1.085       .  S
C523        C524   1.208       .  T
C525        C526   1.208       .  T
C531        C539   1.449       .  S
C531        C532   1.403       .  A
C531        C536   1.403       .  A
C532        C533   1.403       .  A
C532        H541   1.083       .  S
C533        C534   1.403       .  A
C533        H542   1.084       .  S
C534        C537   1.450       .  S
C534        C535   1.403       .  A
C535        C536   1.403       .  A
C535        H543   1.083       .  S
C536        H544   1.084       .  S
C537        C538   1.212       .  T
C539        C540   1.212       .  T
C545        C553   1.442       .  S
C545        C546   1.401       .  A
C545        C550   1.403       .  A
C546        C547   1.400       .  A
C546        H555   1.083       .  S
C547        C548   1.402       .  A
C547        H556   1.084       .  S
C548        C551   1.442       .  S
C548        C549   1.401       .  A
C549        C550   1.400       .  A
C549        H557   1.083   1_556  S
C550        H558   1.084   1_556  S
C551        C552   1.207       .  T
C553        C554   1.207       .  T
C559        C567   1.443       .  S
C559        C560   1.402       .  A
C559        C564   1.402       .  A
C560        C561   1.401   1_655  A
C560        H569   1.085       .  S
C561        C562   1.402       .  A
C561        H570   1.082       .  S
C562        C565   1.444       .  S
C562        C563   1.402       .  A
C563        C564   1.400   1_455  A
C563        H571   1.085       .  S
C564        H572   1.082       .  S
C565        C566   1.208       .  T
C567        C568   1.208       .  T
C573        C581   1.446       .  S
C573        C574   1.403       .  A
C573        C578   1.402       .  A
C574        C575   1.403       .  A
C574        H583   1.082       .  S
C575        C576   1.403       .  A
C575        H584   1.084       .  S
C576        C579   1.446       .  S
C576        C577   1.401       .  A
C577        C578   1.400       .  A
C577        H585   1.082       .  S
C578        H586   1.084       .  S
C579        C580   1.209       .  T
C581        C582   1.210       .  T
C587        C595   1.446       .  S
C587        C588   1.402       .  A
C587        C592   1.403       .  A
C588        C589   1.401       .  A
C588        H597   1.083       .  S
C589        C590   1.403       .  A
C589        H598   1.084       .  S
C590        C593   1.446       .  S
C590        C591   1.402       .  A
C591        C592   1.402       .  A
C591        H599   1.083       .  S
C592        H600   1.084       .  S
C593        C594   1.210       .  T
C595        C596   1.210       .  T
C601        C609   1.446       .  S
C601        C602   1.403       .  A
C601        C606   1.402       .  A
C602        C603   1.401       .  A
C602        H611   1.084       .  S
C603        C604   1.402       .  A
C603        H612   1.083       .  S
C604        C607   1.446       .  S
C604        C605   1.403       .  A
C605        C606   1.401       .  A
C605        H613   1.084       .  S
C606        H614   1.083       .  S
C607        C608   1.209       .  T
C609        C610   1.210       .  T
C615        C623   1.442       .  S
C615        C616   1.400       .  A
C615        C620   1.403       .  A
C616        C617   1.399       .  A
C616        H625   1.084       .  S
C617        C618   1.402       .  A
C617        H626   1.083       .  S
C618        C621   1.442       .  S
C618        C619   1.401       .  A
C619        C620   1.401       .  A
C619        H627   1.084       .  S
C620        H628   1.083       .  S
C621        C622   1.207       .  T
C623        C624   1.207       .  T
C629        C637   1.442       .  S
C629        C630   1.402       .  A
C629        C634   1.401       .  A
C630        C631   1.401   1_545  A
C630        H639   1.084       .  S
C631        C632   1.403       .  A
C631        H640   1.083       .  S
C632        C635   1.441       .  S
C632        C633   1.400       .  A
C633        C634   1.398   1_565  A
C633        H641   1.084       .  S
C634        H642   1.083       .  S
C635        C636   1.207       .  T
C637        C638   1.207       .  T
C643        C651   1.445       .  S
C643        C644   1.402       .  A
C643        C648   1.403       .  A
C644        C645   1.400   1_655  A
C644        H653   1.082       .  S
C645        C646   1.402       .  A
C645        H654   1.085       .  S
C646        C649   1.444       .  S
C646        C647   1.402       .  A
C647        C648   1.402   1_455  A
C647        H655   1.082       .  S
C648        H656   1.085       .  S
C649        C650   1.209       .  T
C651        C652   1.209       .  T
C657        C665   1.442       .  S
C657        C658   1.402       .  A
C657        C662   1.401       .  A
C658        C659   1.400       .  A
C658        H667   1.084       .  S
C659        C660   1.401       .  A
C659        H668   1.082       .  S
C660        C663   1.440       .  S
C660        C661   1.402       .  A
C661        C662   1.399       .  A
C661        H669   1.084       .  S
C662        H670   1.082       .  S
C663        C664   1.206       .  T
C665        C666   1.207       .  T
C671        C679   1.442       .  S
C671        C672   1.401       .  A
C671        C676   1.402       .  A
C672        C673   1.401       .  A
C672        H681   1.083       .  S
C673        C674   1.402       .  A
C673        H682   1.083       .  S
C674        C677   1.443       .  S
C674        C675   1.402       .  A
C675        C676   1.400       .  A
C675        H683   1.083       .  S
C676        H684   1.083       .  S
C677        C678   1.208       .  T
C679        C680   1.207       .  T
C685        C693   1.446       .  S
C685        C686   1.403       .  A
C685        C690   1.402       .  A
C686        C687   1.402   1_545  A
C686        H695   1.083       .  S
C687        C688   1.402       .  A
C687        H696   1.084       .  S
C688        C691   1.446       .  S
C688        C689   1.402       .  A
C689        C690   1.400   1_565  A
C689        H697   1.083       .  S
C690        H698   1.084       .  S
C691        C692   1.209       .  T
C693        C694   1.210       .  T
C699        C707   1.445       .  S
C699        C700   1.403       .  A
C699        C704   1.401       .  A
C700        C701   1.402   1_455  A
C700        H709   1.084       .  S
C701        C702   1.402       .  A
C701        H710   1.083       .  S
C702        C705   1.446       .  S
C702        C703   1.402       .  A
C703        C704   1.400   1_655  A
C703        H711   1.084       .  S
C704        H712   1.083       .  S
C705        C706   1.209       .  T
C707        C708   1.209       .  T
C713        C721   1.444       .  S
C713        C714   1.402       .  A
C713        C718   1.402       .  A
C714        C715   1.402       .  A
C714        H723   1.083       .  S
C715        C716   1.403   1_556  A
C715        H724   1.083   1_556  S
C716        C719   1.444       .  S
C716        C717   1.401   1_554  A
C717        C718   1.399       .  A
C717        H725   1.083       .  S
C718        H726   1.084       .  S
C719        C720   1.208       .  T
C721        C722   1.209       .  T
C727        C735   1.445       .  S
C727        C728   1.403       .  A
C727        C732   1.402       .  A
C728        C729   1.404       .  A
C728        H737   1.083       .  S
C729        C730   1.404       .  A
C729        H738   1.083       .  S
C730        C733   1.446       .  S
C730        C731   1.401       .  A
C731        C732   1.399       .  A
C731        H739   1.083       .  S
C732        H740   1.084       .  S
C733        C734   1.209       .  T
C735        C736   1.209       .  T
C741        C749   1.443       .  S
C741        C742   1.401       .  A
C741        C746   1.403       .  A
C742        C743   1.399       .  A
C742        H751   1.084       .  S
C743        C744   1.402       .  A
C743        H752   1.082       .  S
C744        C747   1.444       .  S
C744        C745   1.402       .  A
C745        C746   1.402       .  A
C745        H753   1.084       .  S
C746        H754   1.082       .  S
C747        C748   1.208       .  T
C749        C750   1.208       .  T
C755        C763   1.441       .  S
C755        C756   1.402       .  A
C755        C760   1.401       .  A
C756        C757   1.401       .  A
C756        H765   1.083       .  S
C757        C758   1.401       .  A
C757        H766   1.083       .  S
C758        C761   1.441       .  S
C758        C759   1.402       .  A
C759        C760   1.399       .  A
C759        H767   1.083       .  S
C760        H768   1.083       .  S
C761        C762   1.207       .  T
C763        C764   1.207       .  T
