geometry optimzed in LAMMPS
_audit_creation_date              2020-11-30 
_audit_creation_method            'lammps2cif' 
_symmetry_space_group_name_H-M    'P1' 
_symmetry_Int_Tables_number       1 
_symmetry_cell_setting            triclinic 
loop_ 
_symmetry_equiv_pos_as_xyz 
  x,y,z 
_cell_length_a                    43.68272857 
_cell_length_b                    43.9845022907357 
_cell_length_c                    32.140272214080454 
_cell_angle_alpha                 89.42837202422712 
_cell_angle_beta                  90.91233469495214 
_cell_angle_gamma                 120.00716993662923 
loop_ 
_atom_site_label 
_atom_site_type_symbol 
_atom_site_fract_x 
_atom_site_fract_y 
_atom_site_fract_z 
_atom_site_charge 
O1          O  0.25526857  0.76411617  0.16102769    -0.81600
C2          C  0.21866979  0.79651621  0.30970749     0.97700
O3          O  0.23855612  0.78601694  0.29580349    -0.70700
O4          O  0.25747835  0.75219998  0.24568132    -0.74300
Al5        Al  0.26294327  0.79818951  0.24552475     1.49000
C6          C  0.23188867  0.72213965  0.23741047     0.93000
O7          O  0.15873049  0.73530045  0.18570892    -0.80500
O8          O  0.19087636  0.81391201  0.16657388    -0.74100
Al9        Al  0.20847145  0.75307406  0.17813410     1.90100
O10         O  0.15661441  0.76947451  0.23316228    -0.73200
O11         O  0.24104445  0.85565038  0.21830621    -0.73000
O12         O  0.20623571  0.81117111  0.28595386    -0.78700
O13         O  0.27910265  0.84699749  0.25330597    -0.76900
O14         O  0.22377878  0.78727850  0.21621987    -1.13000
O15         O  0.29078908  0.81120932  0.19736149    -0.72200
C16         C  0.28565434  0.79045479  0.16789093     0.98500
C17         C  0.14126623  0.74296650  0.21013233     0.94900
Al18       Al  0.20069337  0.81053127  0.22522173     1.55600
O19         O  0.20543209  0.71883438  0.21715636    -0.76800
C20         C  0.27039686  0.86758930  0.23666966     0.99100
C21         C  0.19796298  0.80324556  0.13350750     0.94000
O22         O  0.20952810  0.78218111  0.13481653    -0.82100
O23         O  0.25296487  0.76222067  0.68391998    -0.81600
C24         C  0.19317241  0.80048021  0.80967937     0.97700
O25         O  0.21638653  0.79183943  0.80538849    -0.70700
O26         O  0.24152676  0.75504337  0.77192937    -0.74300
Al27       Al  0.24613539  0.80019636  0.75986068     1.49000
C28         C  0.21842003  0.72405457  0.76197177     0.93000
O29         O  0.15359150  0.72762920  0.68394184    -0.80500
O30         O  0.17784504  0.79970662  0.65880940    -0.74100
Al31       Al  0.20401220  0.74933592  0.68803679     1.90100
O32         O  0.14053538  0.75828965  0.72576600    -0.73200
O33         O  0.21968265  0.84812891  0.71126069    -0.73000
O34         O  0.18046809  0.80822232  0.77834871    -0.78700
O35         O  0.25789791  0.84839292  0.75642984    -0.76900
O36         O  0.21072477  0.78393540  0.72238854    -1.13000
O37         O  0.28123460  0.81112349  0.71910000    -0.72200
C38         C  0.28153135  0.78923268  0.69445871     0.98500
C39         C  0.13109109  0.73161567  0.70350632     0.94900
Al40       Al  0.18217594  0.80205910  0.71892925     1.55600
O41         O  0.19701634  0.71835802  0.73230681    -0.76800
C42         C  0.24733320  0.86451535  0.73290041     0.99100
C43         C  0.19292892  0.79208315  0.63075983     0.94000
O44         O  0.21001486  0.77668920  0.63984469    -0.82100
O45         O  0.24389627  0.49126613  0.33112634    -0.81600
C46         C  0.20034482  0.40220444  0.46793835     0.97700
O47         O  0.21822430  0.43454360  0.45978569    -0.70700
O48         O  0.25957756  0.49187012  0.41843355    -0.74300
Al49       Al  0.21016672  0.45736817  0.41481670     1.49000
C50         C  0.28701079  0.49190934  0.40642437     0.93000
O51         O  0.25813819  0.41186394  0.33791061    -0.80500
O52         O  0.18214303  0.37674549  0.31933976    -0.74100
Al53       Al  0.24763202  0.44945402  0.33898317     1.90100
O54         O  0.22286886  0.37408466  0.38430824    -0.73200
O55         O  0.14446613  0.38787974  0.37409754    -0.73000
O56         O  0.18236594  0.38032595  0.43966421    -0.78700
O57         O  0.15981843  0.42961860  0.42008452    -0.76900
O58         O  0.21449177  0.43008807  0.37769417    -1.13000
O59         O  0.20129296  0.48252127  0.37344113    -0.72200
C60         C  0.22031037  0.49799671  0.34266352     0.98500
C61         C  0.24898679  0.38507130  0.36060834     0.94900
Al62       Al  0.18541755  0.38367902  0.37923580     1.55600
O63         O  0.28498047  0.47124822  0.37838412    -0.76800
C64         C  0.13644840  0.40527572  0.39801807     0.99100
C65         C  0.19190899  0.39849709  0.28954109     0.94000
O66         O  0.21456679  0.43023471  0.29537540    -0.82100
O67         O  0.24721980  0.49199436  0.83372473    -0.81600
C68         C  0.19318664  0.40156952  0.96835702     0.97700
O69         O  0.21018105  0.43393097  0.96046891    -0.70700
O70         O  0.25225579  0.49285666  0.92282974    -0.74300
Al71       Al  0.20496449  0.45485970  0.91196713     1.49000
C72         C  0.28250010  0.49695773  0.91582732     0.93000
O73         O  0.26985932  0.41894176  0.85075991    -0.80500
O74         O  0.19846219  0.37771612  0.82099990    -0.74100
Al75       Al  0.25461922  0.45316498  0.84607961     1.90100
O76         O  0.23301565  0.38053068  0.89548842    -0.73200
O77         O  0.15062772  0.38235604  0.86469080    -0.73000
O78         O  0.18199665  0.37932622  0.93909174    -0.78700
O79         O  0.15468415  0.42174864  0.90913431    -0.76900
O80         O  0.21762393  0.43068992  0.87936762    -1.13000
O81         O  0.19853966  0.47883726  0.86691493    -0.72200
C82         C  0.22186268  0.49726837  0.84079078     0.98500
C83         C  0.26099637  0.39303479  0.87494436     0.94900
Al84       Al  0.19313707  0.38391816  0.87999978     1.55600
O85         O  0.28626613  0.47759116  0.89024572    -0.76800
C86         C  0.13622735  0.39513438  0.88648727     0.99100
C87         C  0.20991790  0.39950942  0.79117049     0.94000
O88         O  0.22757989  0.43192663  0.79829851    -0.82100
O89         O  0.50597062  0.76632760  0.06660470    -0.81600
C90         C  0.61133718  0.80778120  0.95057875     0.97700
O91         O  0.57904792  0.79827647  0.95243003    -0.70700
O92         O  0.51558821  0.75934133  0.98224332    -0.74300
Al93       Al  0.55494502  0.80588964  0.99485509     1.49000
C94         C  0.50862428  0.72876651  0.99334776     0.93000
O95         O  0.57507018  0.73736196  0.07945295    -0.80500
O96         O  0.61833041  0.80900332  0.10238698    -0.74100
Al97       Al  0.54428228  0.75640472  0.06856844     1.90100
O98         O  0.61931309  0.76763557  0.03796610    -0.73200
O99         O  0.62722378  0.85662843  0.04649306    -0.73000
O100        O  0.63059203  0.81632462  0.98305474    -0.78700
O101        O  0.59029632  0.85490853  0.99840711    -0.76900
O102        O  0.57323384  0.79114224  0.03484769    -1.13000
O103        O  0.52849623  0.81596832  0.03256164    -0.72200
C104        C  0.50464892  0.79316865  0.05498507     0.98500
C105        C  0.60278890  0.74199096  0.06206646     0.94900
Al106      Al  0.61987753  0.81075713  0.04182199     1.55600
O107        O  0.52422700  0.72439755  0.02426632    -0.76800
C108        C  0.61630462  0.87210846  0.02270693     0.99100
C109        C  0.59351710  0.80180570  0.12762902     0.94000
O110        O  0.56162474  0.78545209  0.11563541    -0.82100
O111        O  0.50854857  0.76359007  0.59345291    -0.81600
C112        C  0.58917601  0.80333132  0.45069317     0.97700
O113        O  0.55747566  0.79024949  0.46165909    -0.70700
O114        O  0.50167173  0.75287539  0.50707690    -0.74300
Al115      Al  0.54130127  0.79966503  0.51093677     1.49000
C116        C  0.49777614  0.72311419  0.51590626     0.93000
O117        O  0.57997929  0.73750956  0.57820707    -0.80500
O118        O  0.62479816  0.81291960  0.59664776    -0.74100
Al119      Al  0.54686361  0.75438360  0.58109132     1.90100
O120        O  0.61659400  0.77004006  0.52964948    -0.73200
O121        O  0.61983948  0.85667293  0.54462726    -0.73000
O122        O  0.61401952  0.81520070  0.47748685    -0.78700
O123        O  0.57424594  0.84864740  0.50700904    -0.76900
O124        O  0.56784648  0.78866670  0.54323581    -1.13000
O125        O  0.52241048  0.81083950  0.55668467    -0.72200
C126        C  0.50433434  0.78946594  0.58463551     0.98500
C127        C  0.60493979  0.74406022  0.55378393     0.94900
Al128      Al  0.61476441  0.81161545  0.53763315     1.55600
O129        O  0.51908039  0.72029647  0.54035949    -0.76800
C130        C  0.60311729  0.86881413  0.52505735     0.99100
C131        C  0.60544344  0.80367084  0.62853206     0.94000
O132        O  0.57235383  0.78420665  0.62555356    -0.82100
O133        O  0.75215654  0.24553012  0.42139386    -0.81600
C134        C  0.80110928  0.19605515  0.54811463     0.97700
O135        O  0.78002534  0.20743657  0.54217671    -0.70700
O136        O  0.75675078  0.24611193  0.50680832    -0.74300
Al137      Al  0.75245476  0.20128395  0.49437492     1.49000
C138        C  0.78139401  0.27741077  0.50160793     0.93000
O139        O  0.85076893  0.27504919  0.43062163    -0.80500
O140        O  0.82331474  0.20394991  0.39906632    -0.74100
Al141      Al  0.80034276  0.25604535  0.43000943     1.90100
O142        O  0.85810354  0.23894397  0.47120596    -0.73200
O143        O  0.77670569  0.15290559  0.44566982    -0.73000
O144        O  0.81337372  0.18739873  0.51780397    -0.78700
O145        O  0.73974159  0.15284097  0.49069140    -0.76900
O146        O  0.78963068  0.21824500  0.46103306    -1.13000
O147        O  0.72086314  0.19322072  0.44932824    -0.72200
C148        C  0.72286073  0.21760748  0.42656653     0.98500
C149        C  0.87075126  0.26705566  0.45087656     0.94900
Al150      Al  0.81563282  0.19751593  0.45862414     1.55600
O151        O  0.80625341  0.28426596  0.47696930    -0.76800
C152        C  0.74960714  0.13648013  0.46747560     0.99100
C153        C  0.81134355  0.21577303  0.37096391     0.94000
O154        O  0.79552153  0.23209787  0.38025242    -0.82100
O155        O  0.75615171  0.24800811  0.90992466    -0.81600
C156        C  0.80656349  0.21110904  0.04904398     0.97700
O157        O  0.78831734  0.22521085  0.04016544    -0.70700
O158        O  0.77004663  0.26438210  0.99755710    -0.74300
Al159      Al  0.75747907  0.21579982  0.99471847     1.49000
C160        C  0.79688965  0.29212511  0.98518834     0.93000
O161        O  0.85102285  0.26804912  0.91745959    -0.80500
O162        O  0.81272698  0.19007126  0.90213436    -0.74100
Al163      Al  0.80253733  0.25433066  0.91833792     1.90100
O164        O  0.85775447  0.23475430  0.96349577    -0.73200
O165        O  0.76773089  0.15236646  0.95976838    -0.73000
O166        O  0.81339577  0.19495176  0.02165977    -0.78700
O167        O  0.73707616  0.16600136  0.00098883    -0.76900
O168        O  0.79037987  0.22166671  0.95805182    -1.13000
O169        O  0.72279236  0.20575466  0.95308324    -0.72200
C170        C  0.72600178  0.22490879  0.92218901     0.98500
C171        C  0.87061633  0.26130397  0.94003991     0.94900
Al172      Al  0.81111494  0.19533737  0.96143782     1.55600
O173        O  0.81578775  0.29099029  0.95693678    -0.76800
C174        C  0.74112537  0.14328925  0.98214889     0.99100
C175        C  0.80143655  0.19979190  0.87123441     0.94000
O176        O  0.79167317  0.22211261  0.87501071    -0.82100
O177        O  0.76375765  0.51575004  0.07316428    -0.81600
C178        C  0.79991746  0.60196044  0.21007271     0.97700
O179        O  0.78655358  0.56993745  0.20120720    -0.70700
O180        O  0.74705582  0.51338001  0.15734211    -0.74300
Al181      Al  0.79650994  0.54936730  0.15644422     1.49000
C182        C  0.71939160  0.51268375  0.14347101     0.93000
O183        O  0.74767530  0.59272375  0.07223092    -0.80500
O184        O  0.82394873  0.63100028  0.06313029    -0.74100
Al185      Al  0.75956043  0.55688166  0.07820542     1.90100
O186        O  0.77697689  0.63028404  0.12172191    -0.73200
O187        O  0.86128087  0.62455985  0.12443827    -0.73000
O188        O  0.81606291  0.62550174  0.18291253    -0.78700
O189        O  0.84655335  0.57862574  0.16407121    -0.76900
O190        O  0.79139609  0.57689214  0.11917360    -1.13000
O191        O  0.80719249  0.52525079  0.11573247    -0.72200
C192        C  0.78641359  0.50812201  0.08638765     0.98500
C193        C  0.75327351  0.61871673  0.09375989     0.94900
Al194      Al  0.81734899  0.62377656  0.12277926     1.55600
O195        O  0.72146722  0.53420379  0.11588699    -0.76800
C196        C  0.86987576  0.60626812  0.14681998     0.99100
C197        C  0.81532939  0.61001856  0.03266865     0.94000
O198        O  0.79392603  0.57761735  0.03686017    -0.82100
O199        O  0.76047326  0.50631161  0.58566436    -0.81600
C200        C  0.79990114  0.60553914  0.71011128     0.97700
O201        O  0.78991393  0.57340923  0.70627399    -0.70700
O202        O  0.75556082  0.51055280  0.67372510    -0.74300
Al203      Al  0.79913239  0.55242674  0.66136869     1.49000
C204        C  0.72377461  0.50132538  0.66560169     0.93000
O205        O  0.72148930  0.56758878  0.59013660    -0.80500
O206        O  0.79519192  0.61658508  0.55942352    -0.74100
Al207      Al  0.74495317  0.54038708  0.59156786     1.90100
O208        O  0.75594789  0.61447227  0.62680069    -0.73200
O209        O  0.84630311  0.62515443  0.61090816    -0.73000
O210        O  0.80758719  0.62545405  0.67856692    -0.78700
O211        O  0.84669503  0.58970145  0.65871007    -0.76900
O212        O  0.78119943  0.56985960  0.62401609    -1.13000
O213        O  0.81080784  0.52985190  0.62032355    -0.72200
C214        C  0.78931121  0.50741391  0.59505261     0.98500
C215        C  0.72711405  0.59537101  0.60803366     0.94900
Al216      Al  0.79962792  0.61633079  0.61930838     1.55600
O217        O  0.71606739  0.51625210  0.63711226    -0.76800
C218        C  0.86298400  0.61542675  0.63457007     0.99100
C219        C  0.78484040  0.59292955  0.53197955     0.94000
O220        O  0.76905206  0.56093258  0.54200567    -0.82100
O221        O  0.49884273  0.24408486  0.32433093    -0.81600
C222        C  0.39396932  0.20199070  0.20525265     0.97700
O223        O  0.42625635  0.21113129  0.20804316    -0.70700
O224        O  0.49075183  0.24804705  0.23866394    -0.74300
Al225      Al  0.44998274  0.20328996  0.25216047     1.49000
C226        C  0.49942583  0.27950255  0.24648232     0.93000
O227        O  0.43361826  0.27751068  0.32617870    -0.80500
O228        O  0.38822289  0.20293875  0.35784533    -0.74100
Al229      Al  0.46261599  0.25649230  0.32128261     1.90100
O230        O  0.38548714  0.24272029  0.29126843    -0.73200
O231        O  0.37832004  0.15408000  0.30344497    -0.73000
O232        O  0.37486676  0.19403591  0.23741124    -0.78700
O233        O  0.41368266  0.15495599  0.25565494    -0.76900
O234        O  0.43256189  0.21996688  0.29003078    -1.13000
O235        O  0.47574170  0.19325914  0.29271716    -0.72200
C236        C  0.49918905  0.21623429  0.31602208     0.98500
C237        C  0.40459978  0.27114471  0.30997165     0.94900
Al238      Al  0.38583781  0.20019731  0.29686274     1.55600
O239        O  0.48385119  0.28626639  0.27455828    -0.76800
C240        C  0.38801414  0.13808703  0.27965502     0.99100
C241        C  0.41410608  0.21290482  0.38318814     0.94000
O242        O  0.44543181  0.23104583  0.37093221    -0.82100
O243        O  0.47561106  0.22593051  0.85467952    -0.81600
C244        C  0.39373139  0.19628274  0.70586997     0.97700
O245        O  0.41872118  0.19026487  0.71323839    -0.70700
O246        O  0.47645481  0.24756214  0.73546630    -0.74300
Al247      Al  0.45160004  0.20203387  0.75879415     1.49000
C248        C  0.49560008  0.27518091  0.75576427     0.93000
O249        O  0.43242536  0.27523795  0.80987274    -0.80500
O250        O  0.37835841  0.17799877  0.85034288    -0.74100
Al251      Al  0.45262895  0.24872160  0.83024989     1.90100
O252        O  0.37747486  0.23196308  0.80662326    -0.73200
O253        O  0.37532237  0.14640311  0.77965151    -0.73000
O254        O  0.37907769  0.20264688  0.73549236    -0.78700
O255        O  0.42941579  0.15531754  0.77829245    -0.76900
O256        O  0.42847928  0.21409930  0.79402812    -1.13000
O257        O  0.48974487  0.21099045  0.79623845    -0.72200
C258        C  0.49372780  0.21592112  0.83508956     0.98500
C259        C  0.39978084  0.26445623  0.80819068     0.94900
Al260      Al  0.38141173  0.19160877  0.79307556     1.55600
O261        O  0.49161847  0.27639132  0.79444913    -0.76800
C262        C  0.39658397  0.13474737  0.77968332     0.99100
C263        C  0.39317045  0.19870001  0.88049507     0.94000
O264        O  0.41911300  0.22908057  0.87440332    -0.82100
C265        C  0.38758632  0.18639203  0.58499032     0.18900
C266        C  0.40226383  0.17246752  0.55773416    -0.19200
C267        C  0.39913897  0.17459075  0.51461429    -0.11500
C268        C  0.38142129  0.19105526  0.49714388     0.21100
C269        C  0.36507262  0.20345920  0.52418241    -0.20800
C270        C  0.36826929  0.20139027  0.56770578    -0.11700
C271        C  0.38124526  0.19667799  0.45106389    -0.15800
C272        C  0.40952133  0.20350914  0.42798522    -0.29700
C273        C  0.39513797  0.18592085  0.63055722    -0.03900
C274        C  0.38189103  0.19592678  0.66199292    -0.40500
H275        H  0.41690155  0.16034452  0.56985413     0.12300
H276        H  0.41101171  0.16356121  0.49495689     0.11900
H277        H  0.35095515  0.21596974  0.51163256     0.11300
H278        H  0.35643784  0.21239358  0.58738453     0.11600
H279        H  0.35933447  0.19816933  0.43676482     0.14300
H280        H  0.43266362  0.20545594  0.44361176     0.13100
H281        H  0.41362739  0.17701522  0.63868112     0.10800
H282        H  0.36266114  0.20418068  0.65586171     0.12800
C283        C  0.38262229  0.20133888  0.99948279     0.18900
C284        C  0.38133629  0.17094618  0.01578756    -0.19200
C285        C  0.38131785  0.16591826  0.05886261    -0.11500
C286        C  0.38192386  0.19069436  0.08659089     0.21100
C287        C  0.38126049  0.22014231  0.07038788    -0.20800
C288        C  0.38196983  0.22553818  0.02723974    -0.11700
C289        C  0.38960223  0.18822995  0.13127279    -0.15800
C290        C  0.37890955  0.20019117  0.16318099    -0.29700
C291        C  0.38941783  0.21077677  0.95459904    -0.03900
C292        C  0.38073702  0.18730905  0.92353474    -0.40500
H293        H  0.38266980  0.15213809  0.99556381     0.12300
H294        H  0.38239482  0.14329986  0.07063764     0.11900
H295        H  0.38261079  0.24013497  0.09095481     0.11300
H296        H  0.38337694  0.24938120  0.01552970     0.11600
H297        H  0.40612744  0.17673387  0.13819081     0.14300
H298        H  0.36004041  0.20914017  0.15825655     0.13100
H299        H  0.40314609  0.23859901  0.94695018     0.10800
H300        H  0.36482579  0.15937539  0.92974306     0.12800
C301        C  0.57639851  0.36571200  0.73422929     0.18900
C302        C  0.60691111  0.38772612  0.75753060    -0.19200
C303        C  0.63492585  0.41734490  0.73933763    -0.11500
C304        C  0.63278874  0.42555765  0.69736656     0.21100
C305        C  0.60193876  0.40398137  0.67437146    -0.20800
C306        C  0.57399649  0.37431878  0.69251131    -0.11700
C307        C  0.66163572  0.45677207  0.67669891    -0.15800
C308        C  0.69565912  0.47205278  0.68905552    -0.29700
C309        C  0.54728210  0.33469349  0.75482905    -0.03900
C310        C  0.52338863  0.30598785  0.73402748    -0.40500
H311        H  0.60911899  0.38191959  0.78991486     0.12300
H312        H  0.65778513  0.43396994  0.75847848     0.11900
H313        H  0.59947618  0.41006297  0.64216985     0.11300
H314        H  0.55041482  0.35869580  0.67395873     0.11600
H315        H  0.65483219  0.46631415  0.64871175     0.14300
H316        H  0.70355649  0.46166568  0.71523995     0.13100
H317        H  0.54646993  0.33491061  0.78861300     0.10800
H318        H  0.52490022  0.30424854  0.70055108     0.12800
C319        C  0.81219551  0.62181503  0.91512490     0.18900
C320        C  0.78935324  0.62668878  0.88820051    -0.19200
C321        C  0.79157993  0.62456186  0.84504740    -0.11500
C322        C  0.81631202  0.61677023  0.82815787     0.21100
C323        C  0.84008572  0.61331104  0.85500356    -0.20800
C324        C  0.83834165  0.61616785  0.89809986    -0.11700
C325        C  0.81460855  0.60700146  0.78385420    -0.15800
C326        C  0.80367492  0.61985295  0.75238855    -0.29700
C327        C  0.80413800  0.61662029  0.96008363    -0.03900
C328        C  0.82809506  0.62321865  0.99058600    -0.40500
H329        H  0.76867222  0.63056989  0.90069820     0.12300
H330        H  0.77241215  0.62661945  0.82525188     0.11900
H331        H  0.85910649  0.60690581  0.84266476     0.11300
H332        H  0.85576405  0.61146421  0.91803546     0.11600
H333        H  0.82264333  0.58787567  0.77680992     0.14300
H334        H  0.79851430  0.64123720  0.75746334     0.13100
H335        H  0.77647865  0.60516739  0.96845212     0.10800
H336        H  0.85624633  0.63696014  0.98447423     0.12800
C337        C  0.77099355  0.58630791  0.41283984     0.18900
C338        C  0.74070250  0.56520373  0.38875607    -0.19200
C339        C  0.74162008  0.56752420  0.34548323    -0.11500
C340        C  0.77288907  0.59091818  0.32506095     0.21100
C341        C  0.80308599  0.61319752  0.34905057    -0.20800
C342        C  0.80212608  0.61092883  0.39269543    -0.11700
C343        C  0.77384614  0.58723632  0.27933153    -0.15800
C344        C  0.79767708  0.61153469  0.25347605    -0.29700
C345        C  0.76940222  0.57926462  0.45824311    -0.03900
C346        C  0.79008763  0.60264483  0.48737294    -0.40500
H347        H  0.71639996  0.54603124  0.40346687     0.12300
H348        H  0.71807082  0.54992911  0.32778959     0.11900
H349        H  0.82788367  0.63091602  0.33428857     0.11300
H350        H  0.82613923  0.62709938  0.41034217     0.11600
H351        H  0.75414565  0.56209183  0.26634632     0.14300
H352        H  0.81633591  0.63776320  0.26443313     0.13100
H353        H  0.74877781  0.55349233  0.46837975     0.10800
H354        H  0.80915836  0.62943795  0.47878772     0.12800
C355        C  0.57724927  0.37078858  0.21624024     0.18900
C356        C  0.58333051  0.40531110  0.21472003    -0.19200
C357        C  0.61574093  0.43307371  0.20109253    -0.11500
C358        C  0.64305613  0.42692619  0.18924381     0.21100
C359        C  0.63711224  0.39248627  0.19122065    -0.20800
C360        C  0.60460436  0.36470220  0.20432733    -0.11700
C361        C  0.67852477  0.45578183  0.17652294    -0.15800
C362        C  0.68408712  0.48584285  0.15836223    -0.29700
C363        C  0.54338774  0.34229832  0.23357511    -0.03900
C364        C  0.52972914  0.30808438  0.22415201    -0.40500
H365        H  0.56299598  0.41085998  0.22444138     0.12300
H366        H  0.61963700  0.45937651  0.20107011     0.11900
H367        H  0.65782750  0.38706605  0.18279552     0.11300
H368        H  0.60150378  0.33874824  0.20640580     0.11600
H369        H  0.70067411  0.45117857  0.18007017     0.14300
H370        H  0.66194816  0.48983699  0.15144840     0.13100
H371        H  0.52964011  0.34977764  0.25549949     0.10800
H372        H  0.54236758  0.30038687  0.20100805     0.12800
C373        C  0.79203113  0.36543204  0.04366618     0.18900
C374        C  0.76313167  0.36966995  0.05274306    -0.19200
C375        C  0.76829887  0.40227040  0.06487692    -0.11500
C376        C  0.80261869  0.43131781  0.06870478     0.21100
C377        C  0.83169260  0.42684044  0.06146995    -0.20800
C378        C  0.82649931  0.39421816  0.04865369    -0.11700
C379        C  0.80813058  0.46592338  0.08176488    -0.15800
C380        C  0.78615913  0.47725740  0.06879649    -0.29700
C381        C  0.78497984  0.33058679  0.02918517    -0.03900
C382        C  0.80620162  0.32656888  0.00277901    -0.40500
H383        H  0.73638994  0.34778486  0.04976154     0.12300
H384        H  0.74538054  0.40461477  0.07174936     0.11900
H385        H  0.85836445  0.44870973  0.06512219     0.11300
H386        H  0.84940216  0.39152404  0.04315050     0.11600
H387        H  0.83008184  0.48191011  0.10269230     0.14300
H388        H  0.76553135  0.46202051  0.04603803     0.13100
H389        H  0.76002792  0.30777523  0.03781673     0.10800
H390        H  0.83016420  0.34933026  0.99181758     0.12800
C391        C  0.57132584  0.19993284  0.85819686     0.18900
C392        C  0.59902444  0.20338080  0.83336362    -0.19200
C393        C  0.62827378  0.20325666  0.85129674    -0.11500
C394        C  0.63026795  0.19945604  0.89456360     0.21100
C395        C  0.60180679  0.19421485  0.91919084    -0.20800
C396        C  0.57262025  0.19458817  0.90128587    -0.11700
C397        C  0.66169850  0.20104814  0.91488745    -0.15800
C398        C  0.69451994  0.22114220  0.90013431    -0.29700
C399        C  0.54175895  0.20204766  0.83777967    -0.03900
C400        C  0.52060107  0.21106256  0.85770615    -0.40500
H401        H  0.59834864  0.20685033  0.80000434     0.12300
H402        H  0.64919364  0.20605747  0.83122102     0.11900
H403        H  0.60251392  0.19058806  0.95251161     0.11300
H404        H  0.55121107  0.19052414  0.92127598     0.11600
H405        H  0.65805034  0.18742110  0.94438956     0.14300
H406        H  0.69878332  0.23682332  0.87224100     0.13100
H407        H  0.53874404  0.19815619  0.80428761     0.10800
H408        H  0.52395230  0.21666844  0.89077416     0.12800
C409        C  0.79816589  0.18838626  0.66731599     0.18900
C410        C  0.77069961  0.16974842  0.69553392    -0.19200
C411        C  0.77714867  0.17391574  0.73840747    -0.11500
C412        C  0.81112673  0.19752795  0.75379113     0.21100
C413        C  0.83883815  0.21542914  0.72565503    -0.20800
C414        C  0.83256173  0.21059204  0.68272696    -0.11700
C415        C  0.81679313  0.20803342  0.79806926    -0.15800
C416        C  0.80018022  0.18575830  0.82957399    -0.29700
C417        C  0.78912427  0.18795644  0.62265478    -0.03900
C418        C  0.81115299  0.19274144  0.59126634    -0.40500
H419        H  0.74389993  0.15288348  0.68432135     0.12300
H420        H  0.75511407  0.16047975  0.75935092     0.11900
H421        H  0.86510401  0.23418299  0.73690336     0.11300
H422        H  0.85410035  0.22593807  0.66174047     0.11600
H423        H  0.83429481  0.23570685  0.80491648     0.14300
H424        H  0.78463248  0.15763633  0.82442177     0.13100
H425        H  0.76290259  0.18378203  0.61531247     0.10800
H426        H  0.83632307  0.19406216  0.59723216     0.12800
C427        C  0.82281188  0.23498589  0.16524419     0.18900
C428        C  0.81705258  0.20490964  0.18761710    -0.19200
C429        C  0.81655958  0.20471323  0.23129364    -0.11500
C430        C  0.82181868  0.23459614  0.25307708     0.21100
C431        C  0.82908870  0.26490636  0.23055670    -0.20800
C432        C  0.82953265  0.26508185  0.18725440    -0.11700
C433        C  0.81666685  0.23483227  0.29855290    -0.15800
C434        C  0.81709979  0.21202934  0.32653386    -0.29700
C435        C  0.81730384  0.23494414  0.11961270    -0.03900
C436        C  0.81860101  0.21245098  0.09258182    -0.40500
H437        H  0.81096471  0.18097549  0.17160885     0.12300
H438        H  0.81028071  0.18069563  0.24760250     0.11900
H439        H  0.83324497  0.28828891  0.24650838     0.11300
H440        H  0.83385580  0.28851212  0.17081597     0.11600
H441        H  0.81273677  0.25585611  0.30983659     0.14300
H442        H  0.82342100  0.19214307  0.31741439     0.13100
H443        H  0.81064162  0.25419644  0.10775087     0.10800
H444        H  0.82725414  0.19428600  0.10256804     0.12800
C445        C  0.78166887  0.42372825  0.54730760     0.18900
C446        C  0.75328764  0.38930715  0.54328033    -0.19200
C447        C  0.75911206  0.36182998  0.53296136    -0.11500
C448        C  0.79360189  0.36822987  0.52621043     0.21100
C449        C  0.82193689  0.40276133  0.52919367    -0.20800
C450        C  0.81613914  0.43025272  0.53976664    -0.11700
C451        C  0.80035819  0.33995153  0.51261221    -0.15800
C452        C  0.77891042  0.30591296  0.52216324    -0.29700
C453        C  0.77415179  0.45194959  0.55921289    -0.03900
C454        C  0.79810999  0.48165850  0.57828938    -0.40500
H455        H  0.72645849  0.38360686  0.54830275     0.12300
H456        H  0.73642586  0.33581710  0.52923877     0.11900
H457        H  0.84864066  0.40849747  0.52316481     0.11300
H458        H  0.83865317  0.45655230  0.54113669     0.11600
H459        H  0.82305217  0.34733726  0.49294630     0.14300
H460        H  0.75696444  0.29836107  0.54306223     0.13100
H461        H  0.74726387  0.44691792  0.55508271     0.10800
H462        H  0.82438918  0.48607602  0.58533930     0.12800
C463        C  0.65312939  0.23983222  0.38714559     0.18900
C464        C  0.62752835  0.21157520  0.36349745    -0.19200
C465        C  0.59575197  0.21001816  0.35211956    -0.11500
C466        C  0.58889727  0.23669346  0.36435547     0.21100
C467        C  0.61470371  0.26494858  0.38778746    -0.20800
C468        C  0.64653244  0.26660385  0.39884519    -0.11700
C469        C  0.55638865  0.23744810  0.35179235    -0.15800
C470        C  0.52834336  0.21137889  0.33175458    -0.29700
C471        C  0.68708218  0.24238678  0.39977811    -0.03900
C472        C  0.69019904  0.21405709  0.40815512    -0.40500
H473        H  0.63228418  0.19101181  0.35300237     0.12300
H474        H  0.57722539  0.18818692  0.33320582     0.11900
H475        H  0.61035076  0.28602361  0.39736233     0.11300
H476        H  0.66594757  0.28872340  0.41693378     0.11600
H477        H  0.55606087  0.26147364  0.35843776     0.14300
H478        H  0.52714632  0.18677598  0.32476584     0.13100
H479        H  0.70941694  0.26839121  0.40605060     0.10800
H480        H  0.66730392  0.18788165  0.40590434     0.12800
C481        C  0.64036739  0.68307156  0.58898099     0.18900
C482        C  0.62677887  0.64933146  0.60626076    -0.19200
C483        C  0.64858722  0.63464109  0.61249243    -0.11500
C484        C  0.68463168  0.65387813  0.60239596     0.21100
C485        C  0.69833437  0.68787175  0.58614316    -0.20800
C486        C  0.67651827  0.70225571  0.57924894    -0.11700
C487        C  0.70922300  0.64022735  0.60986929    -0.15800
C488        C  0.70010441  0.60629177  0.60546334    -0.29700
C489        C  0.61720429  0.69881556  0.58397175    -0.03900
C490        C  0.62282739  0.72305278  0.55456753    -0.40500
H491        H  0.59922440  0.63430674  0.61485672     0.12300
H492        H  0.63746981  0.60868673  0.62606731     0.11900
H493        H  0.72612230  0.70340538  0.57868696     0.11300
H494        H  0.68834691  0.72882992  0.56743696     0.11600
H495        H  0.73683974  0.65952701  0.61568593     0.14300
H496        H  0.67333167  0.58699539  0.59613312     0.13100
H497        H  0.59571242  0.69098760  0.60570895     0.10800
H498        H  0.64337034  0.72985489  0.53178885     0.12800
C499        C  0.69248088  0.04058308  0.50269484     0.18900
C500        C  0.65905850  0.02044500  0.52047525    -0.19200
C501        C  0.64553376  0.98475617  0.52870865    -0.11500
C502        C  0.66543682  0.96856246  0.51972544     0.21100
C503        C  0.69933958  0.98890595  0.50320411    -0.20800
C504        C  0.71272009  0.02454053  0.49450932    -0.11700
C505        C  0.65142240  0.93056872  0.52726153    -0.15800
C506        C  0.61697378  0.90688990  0.52211752    -0.29700
C507        C  0.70654186  0.07872547  0.49619215    -0.03900
C508        C  0.73124206  0.09780032  0.46786021    -0.40500
H509        H  0.64333807  0.03238019  0.52797904     0.12300
H510        H  0.61972734  0.97002409  0.54266325     0.11900
H511        H  0.71534306  0.97709717  0.49659125     0.11300
H512        H  0.73918502  0.03954047  0.48237235     0.11600
H513        H  0.67012066  0.92158726  0.53370389     0.14300
H514        H  0.59864370  0.91542537  0.51191909     0.13100
H515        H  0.69679591  0.09167769  0.51629046     0.10800
H516        H  0.74039723  0.08509947  0.44661252     0.12800
C517        C  0.66596258  0.70441006  0.06957810     0.18900
C518        C  0.68912570  0.70190473  0.04190793    -0.19200
C519        C  0.70900275  0.68639982  0.05435109    -0.11500
C520        C  0.70659361  0.67349371  0.09510873     0.21100
C521        C  0.68394375  0.67651467  0.12310801    -0.20800
C522        C  0.66353775  0.69152964  0.11042459    -0.11700
C523        C  0.72790081  0.65724464  0.10873403    -0.15800
C524        C  0.73237959  0.63577365  0.08333133    -0.29700
C525        C  0.64741093  0.72346746  0.05584069    -0.03900
C526        C  0.61709155  0.71854802  0.07237697    -0.40500
H527        H  0.69201022  0.71218889  0.01055489     0.12300
H528        H  0.72685183  0.68519418  0.03230239     0.11900
H529        H  0.68190148  0.66705575  0.15475860     0.11300
H530        H  0.64681742  0.69400101  0.13301473     0.11600
H531        H  0.73841639  0.66151288  0.14033179     0.14300
H532        H  0.71906966  0.62934476  0.05315692     0.13100
H533        H  0.65972192  0.74287467  0.03128234     0.10800
H534        H  0.60347426  0.69825310  0.09560575     0.12800
C535        C  0.65083262  0.96915200  0.99436932     0.18900
C536        C  0.63665650  0.99144004  0.98937441    -0.19200
C537        C  0.65896362  0.02769403  0.98388839    -0.11500
C538        C  0.69588353  0.04212964  0.98246888     0.21100
C539        C  0.70987049  0.01966076  0.98652015    -0.20800
C540        C  0.68770468  0.98366612  0.99267558    -0.11700
C541        C  0.72068459  0.08011349  0.97524065    -0.15800
C542        C  0.71447942  0.10573529  0.98726370    -0.29700
C543        C  0.62698519  0.93062608  0.99887776    -0.03900
C544        C  0.63619216  0.91087020  0.02227359    -0.40500
H545        H  0.60830760  0.98077801  0.98983447     0.12300
H546        H  0.64722768  0.04414248  0.97975258     0.11900
H547        H  0.73814408  0.03002941  0.98497213     0.11300
H548        H  0.69945735  0.96710094  0.99501116     0.11600
H549        H  0.74612624  0.08734420  0.96179314     0.14300
H550        H  0.69026543  0.09922109  0.00331625     0.13100
H551        H  0.60174819  0.91835293  0.98235529     0.10800
H552        H  0.66043587  0.92359223  0.04073260     0.12800
C553        C  0.61909634  0.80381200  0.74649846     0.18900
C554        C  0.61863081  0.77951212  0.77553066    -0.19200
C555        C  0.62075574  0.78630689  0.81825883    -0.11500
C556        C  0.62242523  0.81717966  0.83256282     0.21100
C557        C  0.62433589  0.84207360  0.80349334    -0.20800
C558        C  0.62316237  0.83570687  0.76080943    -0.11700
C559        C  0.61548438  0.82097421  0.87655820    -0.15800
C560        C  0.62619706  0.80918744  0.90928771    -0.29700
C561        C  0.60937254  0.79300302  0.70256769    -0.03900
C562        C  0.62144613  0.81537422  0.67016912    -0.40500
H563        H  0.61501244  0.75454871  0.76516183     0.12300
H564        H  0.61836475  0.76628374  0.83999064     0.11900
H565        H  0.62503437  0.86577239  0.81388506     0.11300
H566        H  0.62274569  0.85455566  0.73922275     0.11600
H567        H  0.59929824  0.83289628  0.88216496     0.14300
H568        H  0.64472048  0.79979671  0.90548993     0.13100
H569        H  0.59031803  0.76549852  0.69676983     0.10800
H570        H  0.64270524  0.84225068  0.67433966     0.12800
C571        C  0.57831122  0.80931386  0.33195096     0.18900
C572        C  0.55549193  0.81696162  0.30876204    -0.19200
C573        C  0.55625832  0.81774640  0.26541897    -0.11500
C574        C  0.57998654  0.81107826  0.24404457     0.21100
C575        C  0.60367503  0.80435533  0.26707884    -0.20800
C576        C  0.60284337  0.80346713  0.31073764    -0.11700
C577        C  0.57611778  0.80738446  0.19814187    -0.15800
C578        C  0.60158971  0.81090200  0.17217295    -0.29700
C579        C  0.57339493  0.80525819  0.37769278    -0.03900
C580        C  0.59713100  0.80621412  0.40576299    -0.40500
H581        H  0.53630297  0.82153046  0.32424181     0.12300
H582        H  0.53756761  0.82272818  0.24845424     0.11900
H583        H  0.62165004  0.79813695  0.25155037     0.11300
H584        H  0.62033108  0.79677235  0.32750556     0.11600
H585        H  0.55041249  0.80083615  0.18512248     0.14300
H586        H  0.62812629  0.81939183  0.18374600     0.13100
H587        H  0.54876180  0.80237803  0.38908233     0.10800
H588        H  0.62303760  0.81145966  0.39622380     0.12800
C589        C  0.04254736  0.35263013  0.92850803     0.18900
C590        C  0.02063644  0.36338529  0.94676932    -0.19200
C591        C  0.98522285  0.33902775  0.95453546    -0.11500
C592        C  0.97136090  0.30332662  0.94496488     0.21100
C593        C  0.99371549  0.29224845  0.92873260    -0.20800
C594        C  0.02896761  0.31670874  0.92022935    -0.11700
C595        C  0.93335774  0.27766557  0.95026317    -0.15800
C596        C  0.90884217  0.28594316  0.93854220    -0.29700
C597        C  0.08003472  0.37880985  0.92064584    -0.03900
C598        C  0.09742273  0.37592035  0.88825014    -0.40500
H599        H  0.03079000  0.39075454  0.95434166     0.12300
H600        H  0.96863782  0.34807329  0.96802007     0.11900
H601        H  0.98364322  0.26481015  0.92161090     0.11300
H602        H  0.04566607  0.30742430  0.90768512     0.11600
H603        H  0.92542637  0.25108618  0.96026360     0.14300
H604        H  0.91715701  0.31158137  0.92487809     0.13100
H605        H  0.09393796  0.39982829  0.94308470     0.10800
H606        H  0.08323442  0.35529337  0.86545193     0.12800
C607        C  0.31783479  0.35343632  0.84306598     0.18900
C608        C  0.34534702  0.36222369  0.81502650    -0.19200
C609        C  0.35787917  0.33910764  0.80781080    -0.11500
C610        C  0.34295892  0.30657981  0.82852003     0.21100
C611        C  0.31533424  0.29764260  0.85631574    -0.20800
C612        C  0.30287125  0.32074118  0.86362957    -0.11700
C613        C  0.35479364  0.28090467  0.82124190    -0.15800
C614        C  0.38788065  0.29031288  0.81012033    -0.29700
C615        C  0.30333154  0.37744658  0.84692510    -0.03900
C616        C  0.28165039  0.37505005  0.87753967    -0.40500
H617        H  0.35683360  0.38686216  0.79814268     0.12300
H618        H  0.37854683  0.34642224  0.78524474     0.11900
H619        H  0.30318770  0.27255757  0.87228851     0.11300
H620        H  0.28076954  0.31210814  0.88430239     0.11600
H621        H  0.33636646  0.25351213  0.82837463     0.14300
H622        H  0.40754849  0.31779297  0.80607399     0.13100
H623        H  0.30904221  0.39646644  0.82211430     0.10800
H624        H  0.27578286  0.35673789  0.90305670     0.12800
C625        C  0.43511517  0.63397161  0.96991017     0.18900
C626        C  0.41193165  0.60687599  0.99643663    -0.19200
C627        C  0.38273898  0.57672521  0.98031442    -0.11500
C628        C  0.37655529  0.57283499  0.93716907     0.21100
C629        C  0.40036904  0.59932714  0.91050854    -0.20800
C630        C  0.42922590  0.62981436  0.92667385    -0.11700
C631        C  0.34573377  0.54129192  0.91914609    -0.15800
C632        C  0.31369469  0.52562593  0.93686414    -0.29700
C633        C  0.46555094  0.66559754  0.98855354    -0.03900
C634        C  0.48072032  0.69779606  0.97109441    -0.40500
H635        H  0.41619583  0.60924298  0.02982895     0.12300
H636        H  0.36528354  0.55631495  0.00153956     0.11900
H637        H  0.39630661  0.59663671  0.87710451     0.11300
H638        H  0.44711835  0.64972492  0.90528954     0.11600
H639        H  0.34866158  0.53267205  0.88862836     0.14300
H640        H  0.30962958  0.53617671  0.96532401     0.13100
H641        H  0.47424608  0.66263683  0.01945162     0.10800
H642        H  0.47077359  0.70200142  0.94172417     0.12800
C643        C  0.96352412  0.32996945  0.41198068     0.18900
C644        C  0.98694014  0.36624820  0.40992812    -0.19200
C645        C  0.02261602  0.37917418  0.40073551    -0.11500
C646        C  0.03503389  0.35583239  0.39253237     0.21100
C647        C  0.01111129  0.31964787  0.39262808    -0.20800
C648        C  0.97579662  0.30679976  0.40259566    -0.11700
C649        C  0.07265343  0.36793347  0.38414312    -0.15800
C650        C  0.09939544  0.39673738  0.40176457    -0.29700
C651        C  0.92597240  0.31603460  0.42246197    -0.03900
C652        C  0.90943973  0.28836666  0.44811022    -0.40500
H653        H  0.97776496  0.38449363  0.41622675     0.12300
H654        H  0.04027446  0.40728790  0.39972416     0.11900
H655        H  0.01995516  0.30120566  0.38586707     0.11300
H656        H  0.95795301  0.27867643  0.40267313     0.11600
H657        H  0.07851075  0.35066284  0.36622364     0.14300
H658        H  0.09397135  0.41309955  0.42192682     0.13100
H659        H  0.91154494  0.32736281  0.40736906     0.10800
H660        H  0.92474134  0.27839360  0.46414635     0.12800
C661        C  0.31310859  0.35332275  0.32970680     0.18900
C662        C  0.34973285  0.36901300  0.32425277    -0.19200
C663        C  0.36522913  0.34840086  0.31671800    -0.11500
C664        C  0.34415827  0.31162567  0.31395408     0.21100
C665        C  0.30745479  0.29610758  0.31850387    -0.20800
C666        C  0.29207007  0.31663140  0.32647212    -0.11700
C667        C  0.35900480  0.28842665  0.30555677    -0.15800
C668        C  0.39258717  0.29692399  0.31441478    -0.29700
C669        C  0.29708093  0.37573175  0.33606745    -0.03900
C670        C  0.26752701  0.36488447  0.35822546    -0.40500
H671        H  0.36637457  0.39728681  0.32585336     0.12300
H672        H  0.39348631  0.36142842  0.31222464     0.11900
H673        H  0.29056853  0.26791022  0.31597710     0.11300
H674        H  0.26360734  0.30375560  0.32903498     0.11600
H675        H  0.34070438  0.26215947  0.29421070     0.14300
H676        H  0.41090599  0.32212197  0.32820063     0.13100
H677        H  0.30994021  0.40176903  0.32215985     0.10800
H678        H  0.25586744  0.33985202  0.37444644     0.12800
C679        C  0.22544493  0.40349412  0.67283496     0.18900
C680        C  0.19397291  0.38093103  0.65102663    -0.19200
C681        C  0.19293325  0.38182735  0.60722825    -0.11500
C682        C  0.22333289  0.40533105  0.58492547     0.21100
C683        C  0.25486480  0.42635156  0.60691494    -0.20800
C684        C  0.25593345  0.42536394  0.65014629    -0.11700
C685        C  0.22297999  0.41242822  0.53971492    -0.15800
C686        C  0.19960720  0.39028888  0.51140845    -0.29700
C687        C  0.22757344  0.40895153  0.71855583    -0.03900
C688        C  0.20424731  0.38773462  0.74721837    -0.40500
H689        H  0.16985878  0.36409053  0.66756208     0.12300
H690        H  0.16801578  0.36567838  0.59120558     0.11900
H691        H  0.27862639  0.44469710  0.59060030     0.11300
H692        H  0.28054433  0.44300373  0.66603148     0.11600
H693        H  0.24363250  0.43802398  0.52913006     0.14300
H694        H  0.17978705  0.36379666  0.52010463     0.13100
H695        H  0.25054167  0.43301563  0.72947622     0.10800
H696        H  0.18215229  0.36223376  0.73885497     0.12800
C697        C  0.17692203  0.40639697  0.08519381     0.18900
C698        C  0.17089061  0.43038534  0.10690461    -0.19200
C699        C  0.16987970  0.42989521  0.15017160    -0.11500
C700        C  0.17467909  0.40529083  0.17303980     0.21100
C701        C  0.17868788  0.37977738  0.15151029    -0.20800
C702        C  0.17983273  0.38033867  0.10779764    -0.11700
C703        C  0.18083957  0.41105706  0.21851001    -0.15800
C704        C  0.17813794  0.38705966  0.24677035    -0.29700
C705        C  0.18355710  0.41249025  0.03986125    -0.03900
C706        C  0.18491905  0.39029002  0.01228514    -0.40500
H707        H  0.16844718  0.45068480  0.09038844     0.12300
H708        H  0.16689293  0.44991010  0.16593677     0.11900
H709        H  0.18313907  0.36084746  0.16826047     0.11300
H710        H  0.18488137  0.36165378  0.09217407     0.11600
H711        H  0.18958519  0.43759636  0.22919351     0.14300
H712        H  0.16728601  0.35971903  0.23828146     0.13100
H713        H  0.18774397  0.43760848  0.02830264     0.10800
H714        H  0.17854516  0.36394579  0.02121667     0.12800
C715        C  0.36080015  0.57017526  0.46691880     0.18900
C716        C  0.36204704  0.60027139  0.48304130    -0.19200
C717        C  0.39407798  0.62897034  0.49568552    -0.11500
C718        C  0.42572317  0.62815970  0.49278617     0.21100
C719        C  0.42446915  0.59752316  0.47846911    -0.20800
C720        C  0.39230599  0.56878283  0.46529672    -0.11700
C721        C  0.45987485  0.65885073  0.50573776    -0.15800
C722        C  0.46657599  0.69181697  0.49892578    -0.29700
C723        C  0.32603185  0.54123704  0.45223495    -0.03900
C724        C  0.32207073  0.51717377  0.42395020    -0.40500
H725        H  0.33814842  0.60183591  0.48527265     0.12300
H726        H  0.39397762  0.65171649  0.50808851     0.11900
H727        H  0.44846142  0.59608415  0.47681795     0.11300
H728        H  0.39225218  0.54560390  0.45429106     0.11600
H729        H  0.47961862  0.65429282  0.52095218     0.14300
H730        H  0.44763619  0.69615567  0.48135883     0.13100
H731        H  0.30262559  0.54142188  0.46288851     0.10800
H732        H  0.34495078  0.51714106  0.41137649     0.12800
C733        C  0.30579087  0.96183033  0.76219853     0.18900
C734        C  0.33704148  0.98181297  0.78532876    -0.19200
C735        C  0.35156483  0.01810874  0.78934918    -0.11500
C736        C  0.33489254  0.03507204  0.77034173     0.21100
C737        C  0.30335689  0.01503881  0.74792021    -0.20800
C738        C  0.28889476  0.97886876  0.74385138    -0.11700
C739        C  0.34887663  0.07334465  0.77393107    -0.15800
C740        C  0.38327598  0.09670340  0.77999672    -0.29700
C741        C  0.29038722  0.92315377  0.76006923    -0.03900
C742        C  0.26625003  0.90306704  0.73121386    -0.40500
H743        H  0.35016865  0.96926502  0.80050863     0.12300
H744        H  0.37533458  0.03255536  0.80802250     0.11900
H745        H  0.28976885  0.02743955  0.73351414     0.11300
H746        H  0.26400603  0.96448781  0.72725274     0.11600
H747        H  0.33043021  0.08282556  0.76866152     0.14300
H748        H  0.40255349  0.08807169  0.78266065     0.13100
H749        H  0.29858939  0.91072516  0.78367764     0.10800
H750        H  0.25833268  0.91485698  0.70664189     0.12800
C751        C  0.95890267  0.64863264  0.66969407     0.21300
C752        C  0.97878844  0.63308319  0.68254573    -0.19200
C753        C  0.01441016  0.65387995  0.69391468    -0.11500
C754        C  0.03058391  0.69069269  0.69319630     0.21100
C755        C  0.01049903  0.70618689  0.68116029    -0.20800
C756        C  0.97508148  0.68544339  0.66927012    -0.11700
C757        C  0.06815809  0.71383850  0.70510171    -0.15800
C758        C  0.09333001  0.70548991  0.69821218    -0.29700
C759        C  0.92062843  0.62594468  0.66086746    -0.03900
C760        C  0.90191057  0.63569558  0.63603228    -0.40500
H761        H  0.96665108  0.60476572  0.68400531     0.12300
H762        H  0.02895248  0.64112615  0.70408342     0.11900
H763        H  0.02231896  0.73449511  0.68080873     0.11300
H764        H  0.96023102  0.69832493  0.66106847     0.11600
H765        H  0.07591057  0.74007956  0.71598285     0.14300
H766        H  0.08650914  0.68055712  0.68400899     0.13100
H767        H  0.90719453  0.60063389  0.67653022     0.10800
H768        H  0.91510031  0.65996746  0.61833823     0.12800
C769        C  0.20483713  0.57341938  0.81943401     0.18900
C770        C  0.20608417  0.59916366  0.84596921    -0.19200
C771        C  0.20508103  0.62823404  0.82969903    -0.11500
C772        C  0.20220328  0.63165867  0.78651202     0.21100
C773        C  0.20009389  0.60546087  0.76007683    -0.20800
C774        C  0.20174451  0.57673070  0.77629545    -0.11700
C775        C  0.20057677  0.66172646  0.76794504    -0.15800
C776        C  0.21751604  0.69420973  0.78427461    -0.29700
C777        C  0.20513019  0.54263461  0.83781756    -0.03900
C778        C  0.22039187  0.52628950  0.81951569    -0.40500
H779        H  0.20799752  0.59682239  0.87937409     0.12300
H780        H  0.20583633  0.64753813  0.85094851     0.11900
H781        H  0.19745921  0.60740278  0.72672139     0.11300
H782        H  0.19980091  0.55679363  0.75518986     0.11600
H783        H  0.18725962  0.65754349  0.73791606     0.14300
H784        H  0.23324914  0.69954275  0.81258966     0.13100
H785        H  0.19434492  0.53451407  0.86883160     0.10800
H786        H  0.23431949  0.53607470  0.79039832     0.12800
C787        C  0.41689375  0.77045209  0.63628427     0.18900
C788        C  0.41530703  0.80176203  0.63549739    -0.19200
C789        C  0.38384423  0.80137602  0.64490943    -0.11500
C790        C  0.35330135  0.76977730  0.65557166     0.21100
C791        C  0.35504331  0.73877638  0.65674697    -0.20800
C792        C  0.38641343  0.73915096  0.64754108    -0.11700
C793        C  0.31897379  0.76762163  0.66505117    -0.15800
C794        C  0.31585839  0.79450154  0.67987529    -0.29700
C795        C  0.44886510  0.76855748  0.62414225    -0.03900
C796        C  0.47678526  0.79448593  0.60434519    -0.40500
H797        H  0.43803567  0.82670115  0.62766363     0.12300
H798        H  0.38343298  0.82573958  0.64304331     0.11900
H799        H  0.33196799  0.71405189  0.66490765     0.11300
H800        H  0.38663669  0.71463566  0.64851215     0.11600
H801        H  0.29536167  0.74188188  0.66277869     0.14300
H802        H  0.33921891  0.81986947  0.68538550     0.13100
H803        H  0.44800955  0.74359827  0.62844278     0.10800
H804        H  0.47775903  0.81912225  0.59763412     0.12800
C805        C  0.35199464  0.04132245  0.24816644     0.18900
C806        C  0.36689326  0.02086691  0.23654528    -0.19200
C807        C  0.34558050  0.98452973  0.23095389    -0.11500
C808        C  0.30875096  0.96803023  0.23617270     0.21100
C809        C  0.29376877  0.98867239  0.24639989    -0.20800
C810        C  0.31509673  0.02484514  0.25263652    -0.11700
C811        C  0.28508712  0.92959978  0.23036435    -0.15800
C812        C  0.29505645  0.90585601  0.23950644    -0.29700
C813        C  0.37512942  0.07998485  0.25294798    -0.03900
C814        C  0.36757308  0.09925250  0.27873780    -0.40500
H815        H  0.39513527  0.03302636  0.23201274     0.12300
H816        H  0.35788926  0.96956165  0.22183949     0.11900
H817        H  0.26543178  0.97669303  0.24994107     0.11300
H818        H  0.30250725  0.03992558  0.26001706     0.11600
H819        H  0.25780627  0.92042190  0.22110135     0.14300
H820        H  0.32147808  0.91452426  0.25167346     0.13100
H821        H  0.39905482  0.09291788  0.23462027     0.10800
H822        H  0.34469654  0.08632601  0.29870847     0.12800
C823        C  0.04407903  0.68616200  0.17485521     0.18900
C824        C  0.02231516  0.65284800  0.15738857    -0.19200
C825        C  0.98628871  0.64056099  0.14973283    -0.11500
C826        C  0.97151405  0.66178008  0.15853317     0.21100
C827        C  0.99344423  0.69535851  0.17511865    -0.20800
C828        C  0.02921874  0.70735039  0.18352092    -0.11700
C829        C  0.93378624  0.65031026  0.14922439    -0.15800
C830        C  0.90753197  0.61686779  0.15351720    -0.29700
C831        C  0.08267694  0.69954947  0.18048009    -0.03900
C832        C  0.10217876  0.72289894  0.21023037    -0.40500
H833        H  0.03324933  0.63633229  0.14958278     0.12300
H834        H  0.97027140  0.61488691  0.13591841     0.11900
H835        H  0.98282861  0.71239274  0.18161696     0.11300
H836        H  0.04540023  0.73368221  0.19551894     0.11600
H837        H  0.92714762  0.67043783  0.14135922     0.14300
H838        H  0.91353401  0.59707346  0.16490276     0.13100
H839        H  0.09552383  0.69110845  0.15843971     0.10800
H840        H  0.08917032  0.73044268  0.23308700     0.12800
C841        C  0.19395337  0.80986848  0.92896855     0.18900
C842        C  0.21911496  0.83401710  0.95710941    -0.19200
C843        C  0.21323420  0.83015676  0.00004061    -0.11500
C844        C  0.18240309  0.80141726  0.01573125     0.21100
C845        C  0.15669184  0.77789317  0.98754496    -0.20800
C846        C  0.16214193  0.78232497  0.94450423    -0.11700
C847        C  0.17977247  0.79178635  0.06046449    -0.15800
C848        C  0.19294400  0.81503535  0.09203565    -0.29700
C849        C  0.20390603  0.81098052  0.88475211    -0.03900
C850        C  0.18119640  0.80174210  0.85217030    -0.40500
H851        H  0.24404142  0.85516596  0.94589233     0.12300
H852        H  0.23395000  0.84815369  0.02096325     0.11900
H853        H  0.13302598  0.75516054  0.99894599     0.11300
H854        H  0.14261704  0.76286078  0.92365446     0.11600
H855        H  0.16842182  0.76399666  0.06755140     0.14300
H856        H  0.20203339  0.84266647  0.08679360     0.13100
H857        H  0.23157867  0.81993723  0.87877220     0.10800
H858        H  0.15413058  0.79567512  0.85665668     0.12800
C859        C  0.19079330  0.79815999  0.42304021     0.18900
C860        C  0.19499757  0.82483558  0.45027143    -0.19200
C861        C  0.19506085  0.82014802  0.49362682    -0.11500
C862        C  0.19061570  0.78847580  0.51036919     0.21100
C863        C  0.18446074  0.76127411  0.48305338    -0.20800
C864        C  0.18414903  0.76584450  0.44005511    -0.11700
C865        C  0.19466684  0.78319862  0.55552210    -0.15800
C866        C  0.18956253  0.80038564  0.58667811    -0.29700
C867        C  0.19539435  0.80480827  0.37726566    -0.03900
C868        C  0.21079491  0.79069894  0.35456874    -0.40500
H869        H  0.19985259  0.84986656  0.43800467     0.12300
H870        H  0.20013824  0.84180593  0.51372236     0.11900
H871        H  0.18047703  0.73645568  0.49504602     0.11300
H872        H  0.17936733  0.74416161  0.42013652     0.11600
H873        H  0.20095505  0.76284250  0.56355593     0.14300
H874        H  0.18074237  0.81903834  0.58000384     0.13100
H875        H  0.18863359  0.82317323  0.36289531     0.10800
H876        H  0.22009386  0.77477335  0.37023054     0.12800
C877        C  0.22869602  0.57297458  0.27239185     0.18900
C878        C  0.25777741  0.60581042  0.26283311    -0.19200
C879        C  0.25279628  0.63366713  0.25065737    -0.11500
C880        C  0.21849941  0.62897499  0.24730048     0.21100
C881        C  0.18936966  0.59544037  0.25380129    -0.20800
C882        C  0.19436168  0.56770383  0.26651381    -0.11700
C883        C  0.21255710  0.65861757  0.23696343    -0.15800
C884        C  0.23489474  0.69144168  0.25011582    -0.29700
C885        C  0.23476558  0.54521260  0.29042485    -0.03900
C886        C  0.21427222  0.52423142  0.32100260    -0.40500
H887        H  0.28442423  0.61028472  0.26637387     0.12300
H888        H  0.27580702  0.65888416  0.24412587     0.11900
H889        H  0.16272491  0.59099223  0.25039409     0.11300
H890        H  0.17136882  0.54227711  0.27227264     0.11600
H891        H  0.18902323  0.65319576  0.21913003     0.14300
H892        H  0.25760341  0.69652875  0.26941165     0.13100
H893        H  0.25803954  0.54412247  0.28127221     0.10800
H894        H  0.19252256  0.52718839  0.33203685     0.12800
C895        C  0.34812177  0.77256343  0.10378480     0.18900
C896        C  0.38035901  0.80424540  0.09980370    -0.19200
C897        C  0.41138649  0.80396746  0.09065747    -0.11500
C898        C  0.41076039  0.77199720  0.08455444     0.21100
C899        C  0.37824286  0.74055609  0.08660923    -0.20800
C900        C  0.34725467  0.74084858  0.09587715    -0.11700
C901        C  0.44324028  0.76999020  0.07722695    -0.15800
C902        C  0.47431658  0.79742974  0.06550729    -0.29700
C903        C  0.31554393  0.77124073  0.11898520    -0.03900
C904        C  0.31646999  0.79606595  0.14389868    -0.40500
H905        H  0.38195399  0.82933021  0.10432428     0.12300
H906        H  0.43574026  0.82885589  0.08968334     0.11900
H907        H  0.37688501  0.71556958  0.08174243     0.11300
H908        H  0.32275093  0.71608409  0.09845722     0.11600
H909        H  0.44102111  0.74429695  0.07987741     0.14300
H910        H  0.47700329  0.82296387  0.05979278     0.13100
H911        H  0.29056105  0.74709166  0.11412728     0.10800
H912        H  0.34141675  0.81937056  0.15141991     0.12800
loop_ 
_geom_bond_atom_site_label_1 
_geom_bond_atom_site_label_2 
_geom_bond_distance 
_geom_bond_site_symmetry_2 
_ccdc_geom_bond_type 
O1           C16   1.269       .  A
O1           Al9   1.938       .  S
C2           O12   1.273       .  A
C2            O3   1.259       .  A
C2          C868   1.478       .  S
O3           Al5   1.871       .  S
O4            C6   1.260       .  A
O4           Al5   1.915       .  S
Al5          O13   1.913       .  S
Al5          O15   1.884       .  S
Al5          O14   1.783       .  S
C6           O19   1.261       .  A
C6          C884   1.474       .  S
O7           C17   1.262       .  A
O7           Al9   1.925       .  S
O8           C21   1.269       .  A
O8          Al18   1.947       .  S
Al9          O22   1.867       .  S
Al9          O19   1.904       .  S
Al9          O14   1.793       .  S
O10          C17   1.256       .  A
O10         Al18   1.887       .  S
O11          C20   1.256       .  A
O11         Al18   1.897       .  S
O12         Al18   1.962       .  S
O13          C20   1.257       .  A
O14         Al18   1.787       .  S
O15          C16   1.260       .  A
C16         C904   1.471       .  S
C17         C832   1.479       .  S
C20         C812   1.479       .  S
C21          O22   1.258       .  A
C21         C848   1.478       .  S
O23          C38   1.263       .  A
O23         Al31   1.925       .  S
C24          O34   1.266       .  A
C24          O25   1.258       .  A
C24         C850   1.482       .  S
O25         Al27   1.881       .  S
O26          C28   1.265       .  A
O26         Al27   1.929       .  S
Al27         O35   1.918       .  S
Al27         O37   1.901       .  S
Al27         O36   1.791       .  S
C28          O41   1.260       .  A
C28         C776   1.473       .  S
O29          C39   1.260       .  A
O29         Al31   1.916       .  S
O30          C43   1.267       .  A
O30         Al40   1.937       .  S
Al31         O44   1.891       .  S
Al31         O41   1.880       .  S
Al31         O36   1.788       .  S
O32          C39   1.258       .  A
O32         Al40   1.888       .  S
O33          C42   1.255       .  A
O33         Al40   1.880       .  S
O34         Al40   1.939       .  S
O35          C42   1.262       .  A
O36         Al40   1.786       .  S
O37          C38   1.258       .  A
C38         C794   1.481       .  S
C39         C758   1.473       .  S
C42         C742   1.469       .  S
C43          O44   1.263       .  A
C43         C866   1.483       .  S
O45          C60   1.267       .  A
O45         Al53   1.940       .  S
C46          O56   1.268       .  A
C46          O47   1.261       .  A
C46         C686   1.482       .  S
O47         Al49   1.879       .  S
O48          C50   1.264       .  A
O48         Al49   1.922       .  S
Al49         O57   1.918       .  S
Al49         O59   1.878       .  S
Al49         O58   1.778       .  S
C50          O63   1.257       .  A
C50         C724   1.477       .  S
O51          C61   1.266       .  A
O51         Al53   1.925       .  S
O52          C65   1.265       .  A
O52         Al62   1.944       .  S
Al53         O66   1.872       .  S
Al53         O63   1.892       .  S
Al53         O58   1.781       .  S
O54          C61   1.259       .  A
O54         Al62   1.887       .  S
O55          C64   1.260       .  A
O55         Al62   1.893       .  S
O56         Al62   1.948       .  S
O57          C64   1.261       .  A
O58         Al62   1.786       .  S
O59          C60   1.257       .  A
C60         C886   1.473       .  S
C61         C670   1.474       .  S
C64         C650   1.474       .  S
C65          O66   1.257       .  A
C65         C704   1.480       .  S
O67          C82   1.264       .  A
O67         Al75   1.927       .  S
C68          O78   1.267       .  A
C68          O69   1.258       .  A
C68         C706   1.481   1_556  S
O69         Al71   1.871       .  S
O70          C72   1.264       .  A
O70         Al71   1.928       .  S
Al71         O79   1.937       .  S
Al71         O81   1.882       .  S
Al71         O80   1.778       .  S
C72          O85   1.260       .  A
C72         C632   1.474       .  S
O73          C83   1.266       .  A
O73         Al75   1.930       .  S
O74          C87   1.267       .  A
O74         Al84   1.952       .  S
Al75         O88   1.869       .  S
Al75         O85   1.888       .  S
Al75         O80   1.780       .  S
O76          C83   1.256       .  A
O76         Al84   1.880       .  S
O77          C86   1.256       .  A
O77         Al84   1.881       .  S
O78         Al84   1.951       .  S
O79          C86   1.267       .  A
O80         Al84   1.782       .  S
O81          C82   1.260       .  A
C82         C778   1.471       .  S
C83         C616   1.469       .  S
C86         C598   1.470       .  S
C87          O88   1.258       .  A
C87         C688   1.483       .  S
O89         C104   1.263       .  A
O89         Al97   1.929       .  S
C90         O100   1.266       .  A
C90          O91   1.257       .  A
C90         C560   1.474       .  S
O91         Al93   1.867       .  S
O92          C94   1.270       .  A
O92         Al93   1.946       .  S
Al93        O101   1.928       .  S
Al93        O103   1.889   1_556  S
Al93        O102   1.783   1_556  S
C94         O107   1.263   1_556  A
C94         C634   1.478       .  S
O95         C105   1.262       .  A
O95         Al97   1.934       .  S
O96         C109   1.270       .  A
O96        Al106   1.948       .  S
Al97        O110   1.878       .  S
Al97        O107   1.882       .  S
Al97        O102   1.785       .  S
O98         C105   1.257       .  A
O98        Al106   1.890       .  S
O99         C108   1.256       .  A
O99        Al106   1.885       .  S
O100       Al106   1.937   1_556  S
O101        C108   1.264   1_556  A
O102       Al106   1.782       .  S
O103        C104   1.255       .  A
C104        C902   1.473       .  S
C105        C526   1.481       .  S
C108        C544   1.477       .  S
C109        O110   1.262       .  A
C109        C578   1.479       .  S
O111        C126   1.269       .  A
O111       Al119   1.956       .  S
C112        O122   1.267       .  A
C112        O113   1.260       .  A
C112        C580   1.480       .  S
O113       Al115   1.876       .  S
O114        C116   1.263       .  A
O114       Al115   1.919       .  S
Al115       O123   1.905       .  S
Al115       O125   1.882       .  S
Al115       O124   1.780       .  S
C116        O129   1.261       .  A
C116        C722   1.471       .  S
O117        C127   1.264       .  A
O117       Al119   1.932       .  S
O118        C131   1.267       .  A
O118       Al128   1.935       .  S
Al119       O132   1.878       .  S
Al119       O129   1.898       .  S
Al119       O124   1.792       .  S
O120        C127   1.257       .  A
O120       Al128   1.890       .  S
O121        C130   1.258       .  A
O121       Al128   1.896       .  S
O122       Al128   1.939       .  S
O123        C130   1.258       .  A
O124       Al128   1.786       .  S
O125        C126   1.256       .  A
C126        C796   1.480       .  S
C127        C490   1.479       .  S
C130        C506   1.471       .  S
C131        O132   1.261       .  A
C131        C562   1.473       .  S
O133        C148   1.267       .  A
O133       Al141   1.932       .  S
C134        O144   1.269       .  A
C134        O135   1.261       .  A
C134        C418   1.476       .  S
O135       Al137   1.873       .  S
O136        C138   1.265       .  A
O136       Al137   1.930       .  S
Al137       O145   1.919       .  S
Al137       O147   1.893       .  S
Al137       O146   1.780       .  S
C138        O151   1.262       .  A
C138        C452   1.475       .  S
O139        C149   1.262       .  A
O139       Al141   1.926       .  S
O140        C153   1.268       .  A
O140       Al150   1.942       .  S
Al141       O154   1.874       .  S
Al141       O151   1.895       .  S
Al141       O146   1.784       .  S
O142        C149   1.254       .  A
O142       Al150   1.880       .  S
O143        C152   1.255       .  A
O143       Al150   1.890       .  S
O144       Al150   1.942       .  S
O145        C152   1.262       .  A
O146       Al150   1.780       .  S
O147        C148   1.259       .  A
C148        C472   1.470       .  S
C149        C652   1.470       .  S
C152        C508   1.474       .  S
C153        O154   1.261       .  A
C153        C434   1.479       .  S
O155        C170   1.262       .  A
O155       Al163   1.917       .  S
C156        O166   1.266       .  A
C156        O157   1.259       .  A
C156        C436   1.478       .  S
O157       Al159   1.874   1_554  S
O158        C160   1.263       .  A
O158       Al159   1.925       .  S
Al159       O167   1.918   1_556  S
Al159       O169   1.887       .  S
Al159       O168   1.788       .  S
C160        O173   1.255       .  A
C160        C382   1.474   1_556  S
O161        C171   1.256       .  A
O161       Al163   1.891       .  S
O162        C175   1.265       .  A
O162       Al172   1.929       .  S
Al163       O176   1.876       .  S
Al163       O173   1.886       .  S
Al163       O168   1.788       .  S
O164        C171   1.260       .  A
O164       Al172   1.904       .  S
O165        C174   1.259       .  A
O165       Al172   1.893       .  S
O166       Al172   1.937   1_554  S
O167        C174   1.260   1_554  A
O168       Al172   1.794       .  S
O169        C170   1.259       .  A
C170        C398   1.471       .  S
C171        C596   1.469       .  S
C174        C542   1.479       .  S
C175        O176   1.258       .  A
C175        C416   1.469       .  S
O177        C192   1.260       .  A
O177       Al185   1.916       .  S
C178        O188   1.266       .  A
C178        O179   1.259       .  A
C178        C344   1.480       .  S
O179       Al181   1.875       .  S
O180        C182   1.267       .  A
O180       Al181   1.938       .  S
Al181       O189   1.916       .  S
Al181       O191   1.897       .  S
Al181       O190   1.784       .  S
C182        O195   1.261       .  A
C182        C362   1.481       .  S
O183        C193   1.256       .  A
O183       Al185   1.898       .  S
O184        C197   1.269       .  A
O184       Al194   1.942       .  S
Al185       O198   1.876       .  S
Al185       O195   1.900       .  S
Al185       O190   1.784       .  S
O186        C193   1.261       .  A
O186       Al194   1.923       .  S
O187        C196   1.260       .  A
O187       Al194   1.902       .  S
O188       Al194   1.938       .  S
O189        C196   1.261       .  A
O190       Al194   1.793       .  S
O191        C192   1.259       .  A
C192        C380   1.471       .  S
C193        C524   1.476       .  S
C196        C830   1.481       .  S
C197        O198   1.261       .  A
C197        C328   1.470   1_554  S
O199        C214   1.268       .  A
O199       Al207   1.941       .  S
C200        O210   1.268       .  A
C200        O201   1.260       .  A
C200        C326   1.475       .  S
O201       Al203   1.874       .  S
O202        C204   1.260       .  A
O202       Al203   1.917       .  S
Al203       O211   1.899       .  S
Al203       O213   1.882       .  S
Al203       O212   1.788       .  S
C204        O217   1.258       .  A
C204        C308   1.471       .  S
O205        C215   1.262       .  A
O205       Al207   1.926       .  S
O206        C219   1.265       .  A
O206       Al216   1.932       .  S
Al207       O220   1.880       .  S
Al207       O217   1.884       .  S
Al207       O212   1.788       .  S
O208        C215   1.258       .  A
O208       Al216   1.888       .  S
O209        C218   1.257       .  A
O209       Al216   1.899       .  S
O210       Al216   1.940       .  S
O211        C218   1.258       .  A
O212       Al216   1.789       .  S
O213        C214   1.257       .  A
C214        C454   1.475       .  S
C215        C488   1.481       .  S
C218        C760   1.473       .  S
C219        O220   1.260       .  A
C219        C346   1.480       .  S
O221        C236   1.264       .  A
O221       Al229   1.916       .  S
C222        O232   1.271       .  A
C222        O223   1.260       .  A
C222        C290   1.480       .  S
O223       Al225   1.872       .  S
O224        C226   1.265       .  A
O224       Al225   1.933       .  S
Al225       O233   1.917       .  S
Al225       O235   1.897       .  S
Al225       O234   1.790       .  S
C226        O239   1.262       .  A
C226        C364   1.482       .  S
O227        C237   1.258       .  A
O227       Al229   1.914       .  S
O228        C241   1.271       .  A
O228       Al238   1.963       .  S
Al229       O242   1.877       .  S
Al229       O239   1.903       .  S
Al229       O234   1.787       .  S
O230        C237   1.256       .  A
O230       Al238   1.885       .  S
O231        C240   1.256       .  A
O231       Al238   1.896       .  S
O232       Al238   1.951       .  S
O233        C240   1.260       .  A
O234       Al238   1.790       .  S
O235        C236   1.260       .  A
C236        C470   1.474       .  S
C237        C668   1.477       .  S
C240        C814   1.480       .  S
C241        O242   1.258       .  A
C241        C272   1.483       .  S
O243        C258   1.260       .  A
O243       Al251   1.896       .  S
C244        O254   1.264       .  A
C244        O245   1.264       .  A
C244        C274   1.492       .  S
O245       Al247   1.918       .  S
O246        C248   1.258       .  A
O246       Al247   1.890       .  S
Al247       O255   1.886       .  S
Al247       O257   1.915       .  S
Al247       O256   1.780       .  S
C248        O261   1.264       .  A
C248        C310   1.470       .  S
O249        C259   1.258       .  A
O249       Al251   1.888       .  S
O250        C263   1.263       .  A
O250       Al260   1.916       .  S
Al251       O264   1.918       .  S
Al251       O261   1.915       .  S
Al251       O256   1.782       .  S
O252        C259   1.266       .  A
O252       Al260   1.922       .  S
O253        C262   1.266       .  A
O253       Al260   1.922       .  S
O254       Al260   1.923       .  S
O255        C262   1.257       .  A
O256       Al260   1.781       .  S
O257        C258   1.264       .  A
C258        C400   1.474       .  S
C259        C614   1.470       .  S
C262        C740   1.471       .  S
C263        O264   1.263       .  A
C263        C292   1.482       .  S
C265        C273   1.498       .  S
C265        C266   1.405       .  A
C265        C270   1.411       .  A
C266        C267   1.397       .  A
C266        H275   1.083       .  S
C267        C268   1.406       .  A
C267        H276   1.082       .  S
C268        C271   1.500       .  S
C268        C269   1.408       .  A
C269        C270   1.410       .  A
C269        H277   1.083       .  S
C270        H278   1.081       .  S
C271        H279   1.086       .  S
C271        C272   1.349       .  D
C272        H280   1.086       .  S
C273        H281   1.087       .  S
C273        C274   1.353       .  D
C274        H282   1.084       .  S
C283        C291   1.490       .  S
C283        C284   1.406   1_556  A
C283        C288   1.407   1_556  A
C284        C285   1.400       .  A
C284        H293   1.082   1_554  S
C285        C286   1.404       .  A
C285        H294   1.083       .  S
C286        C289   1.485       .  S
C286        C287   1.405       .  A
C287        C288   1.403       .  A
C287        H295   1.083       .  S
C288        H296   1.083       .  S
C289        H297   1.088       .  S
C289        C290   1.349       .  D
C290        H298   1.086       .  S
C291        H299   1.087       .  S
C291        C292   1.350       .  D
C292        H300   1.085       .  S
C301        C309   1.480       .  S
C301        C302   1.402       .  A
C301        C306   1.406       .  A
C302        C303   1.396       .  A
C302        H311   1.084       .  S
C303        C304   1.407       .  A
C303        H312   1.081       .  S
C304        C307   1.481       .  S
C304        C305   1.402       .  A
C305        C306   1.395       .  A
C305        H313   1.084       .  S
C306        H314   1.081       .  S
C307        H315   1.087       .  S
C307        C308   1.344       .  D
C308        H316   1.085       .  S
C309        H317   1.087       .  S
C309        C310   1.344       .  D
C310        H318   1.085       .  S
C319        C327   1.481       .  S
C319        C320   1.405       .  A
C319        C324   1.404       .  A
C320        C321   1.399       .  A
C320        H329   1.083       .  S
C321        C322   1.404       .  A
C321        H330   1.082       .  S
C322        C325   1.481       .  S
C322        C323   1.405       .  A
C323        C324   1.399       .  A
C323        H331   1.083       .  S
C324        H332   1.083       .  S
C325        H333   1.088       .  S
C325        C326   1.347       .  D
C326        H334   1.086       .  S
C327        H335   1.088       .  S
C327        C328   1.345       .  D
C328        H336   1.085       .  S
C337        C345   1.484       .  S
C337        C338   1.402       .  A
C337        C342   1.408       .  A
C338        C339   1.393       .  A
C338        H347   1.084       .  S
C339        C340   1.402       .  A
C339        H348   1.084       .  S
C340        C343   1.484       .  S
C340        C341   1.409       .  A
C341        C342   1.405       .  A
C341        H349   1.082       .  S
C342        H350   1.082       .  S
C343        H351   1.088       .  S
C343        C344   1.347       .  D
C344        H352   1.085       .  S
C345        H353   1.088       .  S
C345        C346   1.347       .  D
C346        H354   1.085       .  S
C355        C363   1.492       .  S
C355        C356   1.405       .  A
C355        C360   1.408       .  A
C356        C357   1.403       .  A
C356        H365   1.083       .  S
C357        C358   1.408       .  A
C357        H366   1.082       .  S
C358        C361   1.490       .  S
C358        C359   1.404       .  A
C359        C360   1.400       .  A
C359        H367   1.083       .  S
C360        H368   1.082       .  S
C361        H369   1.087       .  S
C361        C362   1.348       .  D
C362        H370   1.085       .  S
C363        H371   1.087       .  S
C363        C364   1.348       .  D
C364        H372   1.085       .  S
C373        C381   1.483       .  S
C373        C374   1.401       .  A
C373        C378   1.409       .  A
C374        C375   1.394       .  A
C374        H383   1.083       .  S
C375        C376   1.406       .  A
C375        H384   1.083       .  S
C376        C379   1.481       .  S
C376        C377   1.402       .  A
C377        C378   1.401       .  A
C377        H385   1.083       .  S
C378        H386   1.082       .  S
C379        H387   1.087       .  S
C379        C380   1.344       .  D
C380        H388   1.087       .  S
C381        H389   1.087       .  S
C381        C382   1.343       .  D
C382        H390   1.086   1_554  S
C391        C399   1.483       .  S
C391        C392   1.403       .  A
C391        C396   1.407       .  A
C392        C393   1.396       .  A
C392        H401   1.083       .  S
C393        C394   1.405       .  A
C393        H402   1.082       .  S
C394        C397   1.481       .  S
C394        C395   1.402       .  A
C395        C396   1.398       .  A
C395        H403   1.083       .  S
C396        H404   1.081       .  S
C397        H405   1.087       .  S
C397        C398   1.344       .  D
C398        H406   1.086       .  S
C399        H407   1.087       .  S
C399        C400   1.346       .  D
C400        H408   1.084       .  S
C409        C417   1.480       .  S
C409        C410   1.404       .  A
C409        C414   1.405       .  A
C410        C411   1.397       .  A
C410        H419   1.083       .  S
C411        C412   1.404       .  A
C411        H420   1.083       .  S
C412        C415   1.479       .  S
C412        C413   1.404       .  A
C413        C414   1.400       .  A
C413        H421   1.083       .  S
C414        H422   1.082       .  S
C415        H423   1.088       .  S
C415        C416   1.343       .  D
C416        H424   1.086       .  S
C417        H425   1.088       .  S
C417        C418   1.346       .  D
C418        H426   1.086       .  S
C427        C435   1.482       .  S
C427        C428   1.409       .  A
C427        C432   1.401       .  A
C428        C429   1.404       .  A
C428        H437   1.082       .  S
C429        C430   1.408       .  A
C429        H438   1.082       .  S
C430        C433   1.483       .  S
C430        C431   1.402       .  A
C431        C432   1.392       .  A
C431        H439   1.084       .  S
C432        H440   1.084       .  S
C433        H441   1.088       .  S
C433        C434   1.347       .  D
C434        H442   1.085       .  S
C435        H443   1.088       .  S
C435        C436   1.346       .  D
C436        H444   1.085       .  S
C445        C453   1.489       .  S
C445        C446   1.403       .  A
C445        C450   1.409       .  A
C446        C447   1.398       .  A
C446        H455   1.083       .  S
C447        C448   1.408       .  A
C447        H456   1.082       .  S
C448        C451   1.486       .  S
C448        C449   1.402       .  A
C449        C450   1.400       .  A
C449        H457   1.083       .  S
C450        H458   1.081       .  S
C451        H459   1.087       .  S
C451        C452   1.346       .  D
C452        H460   1.085       .  S
C453        H461   1.087       .  S
C453        C454   1.344       .  D
C454        H462   1.085       .  S
C463        C471   1.481       .  S
C463        C464   1.405       .  A
C463        C468   1.401       .  A
C464        C465   1.398       .  A
C464        H473   1.082       .  S
C465        C466   1.409       .  A
C465        H474   1.079       .  S
C466        C469   1.486       .  S
C466        C467   1.405       .  A
C467        C468   1.396       .  A
C467        H475   1.084       .  S
C468        H476   1.084       .  S
C469        H477   1.087       .  S
C469        C470   1.347       .  D
C470        H478   1.083       .  S
C471        H479   1.088       .  S
C471        C472   1.344       .  D
C472        H480   1.086       .  S
C481        C489   1.491       .  S
C481        C482   1.406       .  A
C481        C486   1.408       .  A
C482        C483   1.404       .  A
C482        H491   1.083       .  S
C483        C484   1.407       .  A
C483        H492   1.082       .  S
C484        C487   1.485       .  S
C484        C485   1.402       .  A
C485        C486   1.397       .  A
C485        H493   1.084       .  S
C486        H494   1.082       .  S
C487        H495   1.087       .  S
C487        C488   1.347       .  D
C488        H496   1.086       .  S
C489        H497   1.087       .  S
C489        C490   1.347       .  D
C490        H498   1.086       .  S
C499        C507   1.484       .  S
C499        C500   1.402       .  A
C499        C504   1.408       .  A
C500        C501   1.397   1_545  A
C500        H509   1.083       .  S
C501        C502   1.406       .  A
C501        H510   1.082       .  S
C502        C505   1.483       .  S
C502        C503   1.402       .  A
C503        C504   1.399   1_565  A
C503        H511   1.083       .  S
C504        H512   1.082       .  S
C505        H513   1.087       .  S
C505        C506   1.343       .  D
C506        H514   1.086       .  S
C507        H515   1.087       .  S
C507        C508   1.345       .  D
C508        H516   1.085       .  S
C517        C525   1.488       .  S
C517        C518   1.403       .  A
C517        C522   1.409       .  A
C518        C519   1.398       .  A
C518        H527   1.083       .  S
C519        C520   1.407       .  A
C519        H528   1.083       .  S
C520        C523   1.488       .  S
C520        C521   1.403       .  A
C521        C522   1.403       .  A
C521        H529   1.083       .  S
C522        H530   1.082       .  S
C523        H531   1.086       .  S
C523        C524   1.342       .  D
C524        H532   1.087       .  S
C525        H533   1.087       .  S
C525        C526   1.348       .  D
C526        H534   1.085       .  S
C535        C543   1.487       .  S
C535        C536   1.404       .  A
C535        C540   1.407       .  A
C536        C537   1.403   1_565  A
C536        H545   1.083       .  S
C537        C538   1.408       .  A
C537        H546   1.082       .  S
C538        C541   1.486       .  S
C538        C539   1.402       .  A
C539        C540   1.396   1_545  A
C539        H547   1.084       .  S
C540        H548   1.083       .  S
C541        H549   1.087       .  S
C541        C542   1.346       .  D
C542        H550   1.086   1_556  S
C543        H551   1.087       .  S
C543        C544   1.345   1_556  D
C544        H552   1.087       .  S
C553        C561   1.481       .  S
C553        C554   1.404       .  A
C553        C558   1.404       .  A
C554        C555   1.400       .  A
C554        H563   1.083       .  S
C555        C556   1.405       .  A
C555        H564   1.083       .  S
C556        C559   1.479       .  S
C556        C557   1.403       .  A
C557        C558   1.398       .  A
C557        H565   1.083       .  S
C558        H566   1.083       .  S
C559        H567   1.088       .  S
C559        C560   1.346       .  D
C560        H568   1.086       .  S
C561        H569   1.088       .  S
C561        C562   1.345       .  D
C562        H570   1.086       .  S
C571        C579   1.485       .  S
C571        C572   1.403       .  A
C571        C576   1.408       .  A
C572        C573   1.394       .  A
C572        H581   1.084       .  S
C573        C574   1.401       .  A
C573        H582   1.084       .  S
C574        C577   1.484       .  S
C574        C575   1.408       .  A
C575        C576   1.404       .  A
C575        H583   1.082       .  S
C576        H584   1.081       .  S
C577        H585   1.088       .  S
C577        C578   1.347       .  D
C578        H586   1.085       .  S
C579        H587   1.088       .  S
C579        C580   1.348       .  D
C580        H588   1.085       .  S
C589        C597   1.481       .  S
C589        C590   1.400       .  A
C589        C594   1.409       .  A
C590        C591   1.397   1_455  A
C590        H599   1.083       .  S
C591        C592   1.407       .  A
C591        H600   1.083       .  S
C592        C595   1.480       .  S
C592        C593   1.400       .  A
C593        C594   1.398   1_655  A
C593        H601   1.083       .  S
C594        H602   1.083       .  S
C595        H603   1.087       .  S
C595        C596   1.340       .  D
C596        H604   1.087       .  S
C597        H605   1.087       .  S
C597        C598   1.342       .  D
C598        H606   1.087       .  S
C607        C615   1.485       .  S
C607        C608   1.403       .  A
C607        C612   1.410       .  A
C608        C609   1.397       .  A
C608        H617   1.083       .  S
C609        C610   1.406       .  A
C609        H618   1.082       .  S
C610        C613   1.480       .  S
C610        C611   1.401       .  A
C611        C612   1.395       .  A
C611        H619   1.084       .  S
C612        H620   1.080       .  S
C613        H621   1.087       .  S
C613        C614   1.343       .  D
C614        H622   1.085       .  S
C615        H623   1.087       .  S
C615        C616   1.343       .  D
C616        H624   1.084       .  S
C625        C633   1.484       .  S
C625        C626   1.405       .  A
C625        C630   1.406       .  A
C626        C627   1.398       .  A
C626        H635   1.083   1_556  S
C627        C628   1.404       .  A
C627        H636   1.083   1_556  S
C628        C631   1.482       .  S
C628        C629   1.404       .  A
C629        C630   1.400       .  A
C629        H637   1.083       .  S
C630        H638   1.082       .  S
C631        H639   1.087       .  S
C631        C632   1.346       .  D
C632        H640   1.086       .  S
C633        H641   1.087   1_556  S
C633        C634   1.348       .  D
C634        H642   1.085       .  S
C643        C651   1.479       .  S
C643        C644   1.402       .  A
C643        C648   1.405       .  A
C644        C645   1.402   1_655  A
C644        H653   1.083       .  S
C645        C646   1.409       .  A
C645        H654   1.082       .  S
C646        C649   1.481       .  S
C646        C647   1.401       .  A
C647        C648   1.394   1_455  A
C647        H655   1.084       .  S
C648        H656   1.083       .  S
C649        H657   1.087       .  S
C649        C650   1.343       .  D
C650        H658   1.086       .  S
C651        H659   1.086       .  S
C651        C652   1.342       .  D
C652        H660   1.087       .  S
C661        C669   1.484       .  S
C661        C662   1.403       .  A
C661        C666   1.406       .  A
C662        C663   1.401       .  A
C662        H671   1.083       .  S
C663        C664   1.408       .  A
C663        H672   1.081       .  S
C664        C667   1.486       .  S
C664        C665   1.403       .  A
C665        C666   1.396       .  A
C665        H673   1.083       .  S
C666        H674   1.082       .  S
C667        H675   1.087       .  S
C667        C668   1.347       .  D
C668        H676   1.085       .  S
C669        H677   1.087       .  S
C669        C670   1.345       .  D
C670        H678   1.086       .  S
C679        C687   1.485       .  S
C679        C680   1.409       .  A
C679        C684   1.402       .  A
C680        C681   1.408       .  A
C680        H689   1.082       .  S
C681        C682   1.410       .  A
C681        H690   1.082       .  S
C682        C685   1.485       .  S
C682        C683   1.400       .  A
C683        C684   1.390       .  A
C683        H691   1.084       .  S
C684        H692   1.084       .  S
C685        H693   1.088       .  S
C685        C686   1.346       .  D
C686        H694   1.085       .  S
C687        H695   1.088       .  S
C687        C688   1.349       .  D
C688        H696   1.085       .  S
C697        C705   1.485       .  S
C697        C698   1.403       .  A
C697        C702   1.408       .  A
C698        C699   1.392       .  A
C698        H707   1.084       .  S
C699        C700   1.401       .  A
C699        H708   1.084       .  S
C700        C703   1.483       .  S
C700        C701   1.409       .  A
C701        C702   1.406       .  A
C701        H709   1.082       .  S
C702        H710   1.081       .  S
C703        H711   1.088       .  S
C703        C704   1.346       .  D
C704        H712   1.085       .  S
C705        H713   1.088       .  S
C705        C706   1.349       .  D
C706        H714   1.084       .  S
C715        C723   1.485       .  S
C715        C716   1.402       .  A
C715        C720   1.410       .  A
C716        C717   1.394       .  A
C716        H725   1.084       .  S
C717        C718   1.405       .  A
C717        H726   1.083       .  S
C718        C721   1.483       .  S
C718        C719   1.403       .  A
C719        C720   1.402       .  A
C719        H727   1.083       .  S
C720        H728   1.081       .  S
C721        H729   1.087       .  S
C721        C722   1.344       .  D
C722        H730   1.087       .  S
C723        H731   1.087       .  S
C723        C724   1.344       .  D
C724        H732   1.085       .  S
C733        C741   1.486       .  S
C733        C734   1.403       .  A
C733        C738   1.409       .  A
C734        C735   1.399   1_565  A
C734        H743   1.083       .  S
C735        C736   1.407       .  A
C735        H744   1.082       .  S
C736        C739   1.481       .  S
C736        C737   1.400       .  A
C737        C738   1.394   1_545  A
C737        H745   1.084       .  S
C738        H746   1.080       .  S
C739        H747   1.087       .  S
C739        C740   1.342       .  D
C740        H748   1.085       .  S
C741        H749   1.087       .  S
C741        C742   1.344       .  D
C742        H750   1.084       .  S
C751        C759   1.481       .  S
C751        C752   1.404       .  A
C751        C756   1.406       .  A
C752        C753   1.399   1_655  A
C752        H761   1.083       .  S
C753        C754   1.406       .  A
C753        H762   1.082       .  S
C754        C757   1.481       .  S
C754        C755   1.402       .  A
C755        C756   1.396   1_455  A
C755        H763   1.083       .  S
C756        H764   1.082       .  S
C757        H765   1.087       .  S
C757        C758   1.344       .  D
C758        H766   1.086       .  S
C759        H767   1.087       .  S
C759        C760   1.346       .  D
C760        H768   1.085       .  S
C769        C777   1.478       .  S
C769        C770   1.403       .  A
C769        C774   1.404       .  A
C770        C771   1.397       .  A
C770        H779   1.083       .  S
C771        C772   1.405       .  A
C771        H780   1.082       .  S
C772        C775   1.479       .  S
C772        C773   1.403       .  A
C773        C774   1.397       .  A
C773        H781   1.083       .  S
C774        H782   1.083       .  S
C775        H783   1.087       .  S
C775        C776   1.345       .  D
C776        H784   1.086       .  S
C777        H785   1.088       .  S
C777        C778   1.344       .  D
C778        H786   1.086       .  S
C787        C795   1.498       .  S
C787        C788   1.413       .  A
C787        C792   1.404       .  A
C788        C789   1.404       .  A
C788        H797   1.080       .  S
C789        C790   1.407       .  A
C789        H798   1.082       .  S
C790        C793   1.491       .  S
C790        C791   1.403       .  A
C791        C792   1.399       .  A
C791        H799   1.083       .  S
C792        H800   1.083       .  S
C793        H801   1.087       .  S
C793        C794   1.348       .  D
C794        H802   1.085       .  S
C795        H803   1.087       .  S
C795        C796   1.346       .  D
C796        H804   1.083       .  S
C805        C813   1.489       .  S
C805        C806   1.405       .  A
C805        C810   1.407       .  A
C806        C807   1.402   1_545  A
C806        H815   1.083       .  S
C807        C808   1.408       .  A
C807        H816   1.082       .  S
C808        C811   1.488       .  S
C808        C809   1.403       .  A
C809        C810   1.399   1_565  A
C809        H817   1.083       .  S
C810        H818   1.082       .  S
C811        H819   1.087       .  S
C811        C812   1.346       .  D
C812        H820   1.086       .  S
C813        H821   1.087       .  S
C813        C814   1.348       .  D
C814        H822   1.086       .  S
C823        C831   1.491       .  S
C823        C824   1.404       .  A
C823        C828   1.408       .  A
C824        C825   1.403   1_455  A
C824        H833   1.083       .  S
C825        C826   1.408       .  A
C825        H834   1.082       .  S
C826        C829   1.489       .  S
C826        C827   1.403       .  A
C827        C828   1.399   1_655  A
C827        H835   1.083       .  S
C828        H836   1.082       .  S
C829        H837   1.087       .  S
C829        C830   1.346       .  D
C830        H838   1.086       .  S
C831        H839   1.087       .  S
C831        C832   1.347       .  D
C832        H840   1.086       .  S
C841        C849   1.486       .  S
C841        C842   1.405       .  A
C841        C846   1.405       .  A
C842        C843   1.401   1_556  A
C842        H851   1.083       .  S
C843        C844   1.404       .  A
C843        H852   1.083       .  S
C844        C847   1.485       .  S
C844        C845   1.406   1_554  A
C845        C846   1.402       .  A
C845        H853   1.083       .  S
C846        H854   1.083       .  S
C847        H855   1.088       .  S
C847        C848   1.349       .  D
C848        H856   1.086       .  S
C849        H857   1.088       .  S
C849        C850   1.348       .  D
C850        H858   1.086       .  S
C859        C867   1.494       .  S
C859        C860   1.406       .  A
C859        C864   1.407       .  A
C860        C861   1.407       .  A
C860        H869   1.083       .  S
C861        C862   1.409       .  A
C861        H870   1.082       .  S
C862        C865   1.489       .  S
C862        C863   1.402       .  A
C863        C864   1.395       .  A
C863        H871   1.084       .  S
C864        H872   1.082       .  S
C865        H873   1.088       .  S
C865        C866   1.347       .  D
C866        H874   1.085       .  S
C867        H875   1.086       .  S
C867        C868   1.346       .  D
C868        H876   1.086       .  S
C877        C885   1.484       .  S
C877        C878   1.401       .  A
C877        C882   1.408       .  A
C878        C879   1.399       .  A
C878        H887   1.083       .  S
C879        C880   1.409       .  A
C879        H888   1.082       .  S
C880        C883   1.485       .  S
C880        C881   1.401       .  A
C881        C882   1.399       .  A
C881        H889   1.083       .  S
C882        H890   1.083       .  S
C883        H891   1.087       .  S
C883        C884   1.344       .  D
C884        H892   1.086       .  S
C885        H893   1.087       .  S
C885        C886   1.343       .  D
C886        H894   1.087       .  S
C895        C903   1.485       .  S
C895        C896   1.407       .  A
C895        C900   1.402       .  A
C896        C897   1.397       .  A
C896        H905   1.081       .  S
C897        C898   1.408       .  A
C897        H906   1.080       .  S
C898        C901   1.487       .  S
C898        C899   1.404       .  A
C899        C900   1.397       .  A
C899        H907   1.083       .  S
C900        H908   1.083       .  S
C901        H909   1.087       .  S
C901        C902   1.345       .  D
C902        H910   1.083       .  S
C903        H911   1.087       .  S
C903        C904   1.344       .  D
C904        H912   1.084       .  S
