geometry optimzed in LAMMPS
_audit_creation_date              2020-12-01 
_audit_creation_method            'lammps2cif' 
_symmetry_space_group_name_H-M    'P1' 
_symmetry_Int_Tables_number       1 
_symmetry_cell_setting            triclinic 
loop_ 
_symmetry_equiv_pos_as_xyz 
  x,y,z 
_cell_length_a                    31.35082546 
_cell_length_b                    31.350190259210994 
_cell_length_c                    47.97613120057595 
_cell_angle_alpha                 90.32438839034566 
_cell_angle_beta                  89.68140381181261 
_cell_angle_gamma                 120.57554425655091 
loop_ 
_atom_site_label 
_atom_site_type_symbol 
_atom_site_fract_x 
_atom_site_fract_y 
_atom_site_fract_z 
_atom_site_charge 
O1          O  0.79937303  0.10221472  0.43083185    -0.80700
C2          C  0.97621085  0.14385940  0.37423034     0.98600
O3          O  0.95725082  0.11698621  0.39535570    -0.69800
O4          O  0.94332141  0.16446916  0.43571557    -0.73400
Al5        Al  0.90183181  0.10308452  0.41827444     1.49000
C6          C  0.93015289  0.19250362  0.44667084     0.93900
O7          O  0.88632114  0.21883074  0.38988611    -0.79600
O8          O  0.81253097  0.09100285  0.35307291    -0.73200
Al9        Al  0.84511484  0.15877914  0.40946718     1.90100
O10         O  0.88932780  0.18685288  0.34962689    -0.72300
O11         O  0.87461539  0.05943155  0.35902029    -0.72100
O12         O  0.95174810  0.15665411  0.35935762    -0.77800
O13         O  0.86306914  0.03871301  0.40324757    -0.76000
O14         O  0.87609752  0.12870622  0.39538699    -1.12100
O15         O  0.85269651  0.08291909  0.44675435    -0.71300
C16         C  0.81052786  0.07851471  0.44749335     0.99400
C17         C  0.89615378  0.22333469  0.36419557     0.95800
Al18       Al  0.88150554  0.12393500  0.35847932     1.55600
O19         O  0.88924862  0.18890820  0.44065698    -0.75900
C20         C  0.86160149  0.02733339  0.37794590     1.00000
C21         C  0.78328854  0.10443186  0.36178258     0.94900
O22         O  0.79493528  0.13537989  0.38137148    -0.81300
O23         O  0.21574538  0.31300535  0.56283144    -0.80700
C24         C  0.03709830  0.17773334  0.61871791     0.98600
O25         O  0.05598522  0.16938704  0.59769955    -0.69800
O26         O  0.07169493  0.23107562  0.55745953    -0.73400
Al27       Al  0.11200158  0.21087226  0.57502022     1.49000
C28         C  0.08580985  0.27256782  0.54656500     0.93900
O29         O  0.12998650  0.34372501  0.60370927    -0.79600
O30         O  0.20109587  0.28867865  0.64057485    -0.73200
Al31       Al  0.17055923  0.32433798  0.58418760     1.90100
O32         O  0.12579065  0.30870229  0.64389590    -0.72300
O33         O  0.13753323  0.19440013  0.63433229    -0.72100
O34         O  0.06192184  0.21541560  0.63371998    -0.77800
O35         O  0.14960330  0.18493822  0.59015235    -0.76000
O36         O  0.13832040  0.26284462  0.59805300    -1.12100
O37         O  0.16151374  0.23965459  0.54673352    -0.71300
C38         C  0.20400700  0.27767920  0.54605424     0.99400
C39         C  0.11966531  0.33844810  0.62933864     0.95800
Al40       Al  0.13220561  0.25280626  0.63492662     1.55600
O41         O  0.12693529  0.31020569  0.55284064    -0.75900
C42         C  0.15049132  0.17509962  0.61544776     1.00000
C43         C  0.23133243  0.33150280  0.63198157     0.94900
O44         O  0.22056540  0.35122765  0.61249635    -0.81300
O45         O  0.10897357  0.79259886  0.56248791    -0.80700
C46         C  0.15062417  0.96958997  0.61899989     0.98600
O47         O  0.12363010  0.95047773  0.59793115    -0.69800
O48         O  0.17098547  0.93648857  0.55751598    -0.73400
Al49       Al  0.10971501  0.89499470  0.57505669     1.49000
C50         C  0.19902228  0.92333106  0.54655109     0.93900
O51         O  0.22573061  0.87973123  0.60332910    -0.79600
O52         O  0.09816006  0.80602986  0.64033068    -0.73200
Al53       Al  0.16559519  0.83844236  0.58381315     1.90100
O54         O  0.19395798  0.88295452  0.64361100    -0.72300
O55         O  0.06640651  0.86795965  0.63438257    -0.72100
O56         O  0.16356500  0.94524341  0.63387495    -0.77800
O57         O  0.04545077  0.85619297  0.59018797    -0.76000
O58         O  0.13553285  0.86941893  0.59792189    -1.12100
O59         O  0.08946956  0.84578412  0.54660546    -0.71300
C60         C  0.08516574  0.80365979  0.54584789     0.99400
C61         C  0.23036855  0.88971152  0.62900384     0.95800
Al62       Al  0.13095601  0.87498231  0.63483683     1.55600
O63         O  0.19555306  0.88250303  0.55260681    -0.75900
C64         C  0.03420209  0.85479794  0.61550594     1.00000
C65         C  0.11153032  0.77675963  0.63158430     0.94900
O66         O  0.14233785  0.78833837  0.61193043    -0.81300
O67         O  0.31904343  0.20813509  0.43001476    -0.80700
C68         C  0.18375870  0.02953242  0.37412799     0.98600
O69         O  0.17537808  0.04840495  0.39514748    -0.69800
O70         O  0.23699762  0.06411002  0.43542616    -0.73400
Al71       Al  0.21683859  0.10443498  0.41784904     1.49000
C72         C  0.27848983  0.07822612  0.44632096     0.93900
O73         O  0.34955254  0.12219988  0.38918620    -0.79600
O74         O  0.29460922  0.19354391  0.35238650    -0.73200
Al75       Al  0.33028537  0.16287538  0.40869061     1.90100
O76         O  0.31473798  0.11831113  0.34896969    -0.72300
O77         O  0.20037575  0.12993925  0.35853233    -0.72100
O78         O  0.22143268  0.05437603  0.35912549    -0.77800
O79         O  0.19096174  0.14206365  0.40270786    -0.76000
O80         O  0.26880095  0.13070693  0.39482611    -1.12100
O81         O  0.24566710  0.15401432  0.44613228    -0.71300
C82         C  0.28374974  0.19648204  0.44679709     0.99400
C83         C  0.34439731  0.11205615  0.36353376     0.95800
Al84       Al  0.25878848  0.12465060  0.35795155     1.55600
O85         O  0.31612914  0.11932972  0.44004388    -0.75900
C86         C  0.18116517  0.14299845  0.37741230     1.00000
C87         C  0.33745571  0.22370294  0.36098020     0.94900
O88         O  0.35722020  0.21282117  0.38038534    -0.81300
O89         O  0.89947706  0.68527542  0.43056798    -0.80700
C90         C  0.86002220  0.82087367  0.37451542     0.98600
O91         O  0.88673860  0.82910547  0.39566041    -0.69800
O92         O  0.83884788  0.76735551  0.43583906    -0.73400
Al93       Al  0.90009976  0.78758662  0.41836039     1.49000
C94         C  0.81045204  0.72582832  0.44665919     0.93900
O95         O  0.78346712  0.65503647  0.38948236    -0.79600
O96         O  0.91142242  0.70953627  0.35287442    -0.73200
Al97       Al  0.84326959  0.67411288  0.40911864     1.90100
O98         O  0.81596663  0.69002241  0.34933905    -0.72300
O99         O  0.94388087  0.80389366  0.35911261    -0.72100
O100        O  0.84709795  0.78333930  0.35943699    -0.77800
O101        O  0.96443263  0.81363331  0.40335509    -0.76000
O102        O  0.87407645  0.73564746  0.39528517    -1.12100
O103        O  0.91974207  0.75870220  0.44664416    -0.71300
C104        C  0.92346754  0.72062947  0.44732431     0.99400
C105        C  0.77915181  0.66049395  0.36384738     0.95800
Al106      Al  0.87912257  0.74569853  0.35840504     1.55600
O107        O  0.81343194  0.68822187  0.44040240    -0.75900
C108        C  0.97595913  0.82331625  0.37807287     1.00000
C109        C  0.89757486  0.66660176  0.36143849     0.94900
O110        O  0.86630644  0.64705424  0.38088186    -0.81300
O111        O  0.69265392  0.89300720  0.56278247    -0.80700
C112        C  0.82806069  0.85348374  0.61892808     0.98600
O113        O  0.83631776  0.88003582  0.59770448    -0.69800
O114        O  0.77447997  0.83213006  0.55756845    -0.73400
Al115      Al  0.79490717  0.89349231  0.57496735     1.49000
C116        C  0.73291469  0.80377125  0.54677979     0.93900
O117        O  0.66239418  0.77719109  0.60405085    -0.79600
O118        O  0.71719220  0.90553881  0.64034958    -0.73200
Al119      Al  0.68146293  0.83689605  0.58430540     1.90100
O120        O  0.69738477  0.80998076  0.64415423    -0.72300
O121        O  0.81147548  0.93771312  0.63413745    -0.72100
O122        O  0.79063159  0.84084471  0.63404200    -0.77800
O123        O  0.82119402  0.95793744  0.58985374    -0.76000
O124        O  0.74303730  0.86771916  0.59808338    -1.12100
O125        O  0.76603061  0.91313487  0.54667353    -0.71300
C126        C  0.72798443  0.91691378  0.54600634     0.99400
C127        C  0.66784875  0.77305112  0.62970984     0.95800
Al128      Al  0.75316706  0.87302906  0.63495808     1.55600
O129        O  0.69538021  0.80685355  0.55305677    -0.75900
C130        C  0.83093341  0.96964478  0.61511053     1.00000
C131        C  0.67423083  0.89163781  0.63181725     0.94900
O132        O  0.65454776  0.86014089  0.61249258    -0.81300
O133        O  0.54879648  0.97931577  0.22963753    -0.80700
C134        C  0.37015149  0.84384731  0.28543405     0.98600
O135        O  0.38903042  0.83557237  0.26438262    -0.69800
O136        O  0.40471970  0.89732490  0.22418704    -0.73400
Al137      Al  0.44505218  0.87712267  0.24170756     1.49000
C138        C  0.41884794  0.93882706  0.21330623     0.93900
O139        O  0.46279558  0.00977509  0.27045979    -0.79600
O140        O  0.53413562  0.95483544  0.30724721    -0.73200
Al141      Al  0.50350415  0.99055074  0.25094884     1.90100
O142        O  0.45880506  0.97482840  0.31064825    -0.72300
O143        O  0.47062684  0.86057563  0.30099442    -0.72100
O144        O  0.39496712  0.88150587  0.30045624    -0.77800
O145        O  0.48268006  0.85120319  0.25679868    -0.76000
O146        O  0.47132244  0.92903634  0.26477408    -1.12100
O147        O  0.49462754  0.90602181  0.21343119    -0.71300
C148        C  0.53714501  0.94403934  0.21283482     0.99400
C149        C  0.45257059  0.00452222  0.29610315     0.95800
Al150      Al  0.46524715  0.91894466  0.30163834     1.55600
O151        O  0.45998472  0.97644174  0.21957257    -0.75900
C152        C  0.48362356  0.84135474  0.28208455     1.00000
C153        C  0.56426958  0.99772547  0.29870739     0.94900
O154        O  0.55341428  0.01747892  0.27928477    -0.81300
O155        O  0.13299966  0.76841271  0.09733849    -0.80700
C156        C  0.31028609  0.81018730  0.04116363     0.98600
O157        O  0.29110680  0.78323341  0.06223579    -0.69800
O158        O  0.27686383  0.83066955  0.10250289    -0.73400
Al159      Al  0.23552042  0.76931629  0.08500389     1.49000
C160        C  0.26363344  0.85874325  0.11334117     0.93900
O161        O  0.22003081  0.88507201  0.05640734    -0.79600
O162        O  0.14677056  0.75735784  0.01952307    -0.73200
Al163      Al  0.17881741  0.82498022  0.07597898     1.90100
O164        O  0.22356218  0.85322121  0.01621835    -0.72300
O165        O  0.20883131  0.72584620  0.02570725    -0.72100
O166        O  0.28597525  0.82306453  0.02620938    -0.77800
O167        O  0.19685076  0.70498776  0.06991407    -0.76000
O168        O  0.20996174  0.79498643  0.06201647    -1.12100
O169        O  0.18621769  0.74909799  0.11338714    -0.71300
C170        C  0.14405978  0.74471303  0.11405554     0.99400
C171        C  0.23011579  0.88964149  0.03074726     0.95800
Al172      Al  0.21570873  0.79031805  0.02512545     1.55600
O173        O  0.22278979  0.85517223  0.10720223    -0.75900
C174        C  0.19557961  0.69368659  0.04461202     1.00000
C175        C  0.11735277  0.77058507  0.02820474     0.94900
O176        O  0.12878716  0.80145572  0.04781419    -0.81300
O177        O  0.02562199  0.55924326  0.22938356    -0.80700
C178        C  0.16114388  0.51975810  0.28544712     0.98600
O179        O  0.16938373  0.54637981  0.26425960    -0.69800
O180        O  0.10757178  0.49845404  0.22411535    -0.73400
Al181      Al  0.12791476  0.55977929  0.24154716     1.49000
C182        C  0.06603234  0.47010293  0.21329523     0.93900
O183        O  0.99547212  0.44332281  0.27052166    -0.79600
O184        O  0.05004692  0.57149383  0.30699517    -0.73200
Al185      Al  0.01447093  0.50306874  0.25085152     1.90100
O186        O  0.03041109  0.47599420  0.31065588    -0.72300
O187        O  0.14439455  0.60382206  0.30075277    -0.72100
O188        O  0.12367739  0.50699378  0.30054953    -0.77800
O189        O  0.15411469  0.62418508  0.25648631    -0.76000
O190        O  0.07602877  0.53390280  0.26464990    -1.12100
O191        O  0.09900211  0.57940041  0.21326642    -0.71300
C192        C  0.06095116  0.58317037  0.21260452     0.99400
C193        C  0.00092444  0.43910817  0.29617047     0.95800
Al194      Al  0.08613231  0.53909853  0.30152546     1.55600
O195        O  0.02847543  0.47316006  0.21955808    -0.75900
C196        C  0.16386414  0.63581187  0.28175400     1.00000
C197        C  0.00705012  0.55751996  0.29848970     0.94900
O198        O  0.98745535  0.52614307  0.27909692    -0.81300
O199        O  0.23283643  0.35165420  0.09732952    -0.80700
C200        C  0.19390834  0.48736343  0.04108291     0.98600
O201        O  0.22041909  0.49557534  0.06232086    -0.69800
O202        O  0.17231270  0.43381871  0.10243993    -0.73400
Al203      Al  0.23367759  0.45407436  0.08509088     1.49000
C204        C  0.14383404  0.39228179  0.11322066     0.93900
O205        O  0.11719937  0.32172211  0.05596783    -0.79600
O206        O  0.24559607  0.37616819  0.01976587    -0.73200
Al207      Al  0.17682342  0.34061923  0.07575785     1.90100
O208        O  0.15012959  0.35662295  0.01587361    -0.72300
O209        O  0.27800973  0.47053707  0.02595785    -0.72100
O210        O  0.18121239  0.44991682  0.02597162    -0.77800
O211        O  0.29814187  0.48021645  0.07025561    -0.76000
O212        O  0.20783034  0.40219197  0.06197791    -1.12100
O213        O  0.25313542  0.42509953  0.11341311    -0.71300
C214        C  0.25680186  0.38698987  0.11409868     0.99400
C215        C  0.11313171  0.32718484  0.03030226     0.95800
Al216      Al  0.21324010  0.41230727  0.02510414     1.55600
O217        O  0.14680753  0.35467266  0.10697163    -0.75900
C218        C  0.30990917  0.48997951  0.04500771     1.00000
C219        C  0.23154278  0.33316850  0.02829112     0.94900
O220        O  0.19999574  0.31356037  0.04759813    -0.81300
O221        O  0.65366324  0.87516449  0.09721818    -0.80700
C222        C  0.51820927  0.69621055  0.04158132     0.98600
O223        O  0.51000223  0.71514209  0.06262946    -0.69800
O224        O  0.57194847  0.73107569  0.10276267    -0.73400
Al225      Al  0.55157708  0.77126071  0.08523279     1.49000
C226        C  0.61348529  0.74530026  0.11362706     0.93900
O227        O  0.68434057  0.78930148  0.05641280    -0.79600
O228        O  0.62905831  0.86017861  0.01953398    -0.73200
Al229      Al  0.66498869  0.82992111  0.07590960     1.90100
O230        O  0.64910018  0.78485712  0.01625886    -0.72300
O231        O  0.53483012  0.79663329  0.02593089    -0.72100
O232        O  0.55582499  0.72100128  0.02652890    -0.77800
O233        O  0.52549648  0.80874406  0.07012677    -0.76000
O234        O  0.60343299  0.79755460  0.06212373    -1.12100
O235        O  0.58046226  0.82089395  0.11347078    -0.71300
C236        C  0.61841463  0.86345063  0.11404713     0.99400
C237        C  0.67894454  0.77884719  0.03079867     0.95800
Al238      Al  0.59322665  0.79129918  0.02526573     1.55600
O239        O  0.65104882  0.78645795  0.10731867    -0.75900
C240        C  0.51559034  0.80961216  0.04484051     1.00000
C241        C  0.67191654  0.89047493  0.02805775     0.94900
O242        O  0.69173965  0.87980365  0.04753140    -0.81300
O243        O  0.44215460  0.45885579  0.22923843    -0.80700
C244        C  0.48405162  0.63605867  0.28551312     0.98600
O245        O  0.45709397  0.61695100  0.26443169    -0.69800
O246        O  0.50460770  0.60280428  0.22417112    -0.73400
Al247      Al  0.44319511  0.56142350  0.24160741     1.49000
C248        C  0.53266607  0.58957209  0.21331352     0.93900
O249        O  0.55882553  0.54577243  0.27015534    -0.79600
O250        O  0.43108442  0.47247939  0.30701369    -0.73200
Al251      Al  0.49874690  0.50461328  0.25058267     1.90100
O252        O  0.52696004  0.54921138  0.31036083    -0.72300
O253        O  0.39962333  0.53458951  0.30087157    -0.72100
O254        O  0.49688129  0.61168176  0.30043916    -0.77800
O255        O  0.37883328  0.52273067  0.25664936    -0.76000
O256        O  0.46878815  0.53576560  0.26457375    -1.12100
O257        O  0.42301050  0.51219307  0.21317572    -0.71300
C258        C  0.41851398  0.46998441  0.21252106     0.99400
C259        C  0.56337848  0.55579312  0.29582279     0.95800
Al260      Al  0.46408428  0.54142412  0.30146463     1.55600
O261        O  0.52897256  0.54863981  0.21937167    -0.75900
C262        C  0.36749257  0.52139669  0.28194940     1.00000
C263        C  0.44433884  0.44308604  0.29832768     0.94900
O264        O  0.47522124  0.45454843  0.27872549    -0.81300
O265        O  0.77623146  0.12532316  0.89535506    -0.80700
C266        C  0.81783181  0.30224909  0.95194558     0.98600
O267        O  0.79097588  0.28321077  0.93082504    -0.69800
O268        O  0.83847731  0.26923977  0.89049957    -0.73400
Al269      Al  0.77710905  0.22777447  0.90794543     1.49000
C270        C  0.86656441  0.25610368  0.87958230     0.93900
O271        O  0.89284947  0.21214616  0.93641928    -0.79600
O272        O  0.76513417  0.13858757  0.97324549    -0.73200
Al273      Al  0.83278280  0.17102291  0.91678842     1.90100
O274        O  0.86095188  0.21548520  0.97663237    -0.72300
O275        O  0.73348568  0.20060516  0.96720599    -0.72100
O276        O  0.83067083  0.27784702  0.96684586    -0.77800
O277        O  0.71275104  0.18902805  0.92297685    -0.76000
O278        O  0.80274594  0.20206456  0.93085444    -1.12100
O279        O  0.75693907  0.17865788  0.87946931    -0.71300
C280        C  0.75252745  0.13649440  0.87870217     0.99400
C281        C  0.89740075  0.22216393  0.96209049     0.95800
Al282      Al  0.79800949  0.20756780  0.96776456     1.55600
O283        O  0.86302235  0.21523021  0.88562942    -0.75900
C284        C  0.70138724  0.18759153  0.94827838     1.00000
C285        C  0.77841042  0.10923426  0.96451194     0.94900
O286        O  0.80924235  0.12077378  0.94486788    -0.81300
O287        O  0.98693934  0.54214634  0.76370804    -0.80700
C288        C  0.85122754  0.36367847  0.70789403     0.98600
O289        O  0.84299445  0.38250736  0.72898466    -0.69800
O290        O  0.90483195  0.39810740  0.76911095    -0.73400
Al291      Al  0.88460281  0.43849006  0.75166276     1.49000
C292        C  0.94636373  0.41214752  0.77992949     0.93900
O293        O  0.01707971  0.45612713  0.72267647    -0.79600
O294        O  0.96208762  0.52769055  0.68614765    -0.73200
Al295      Al  0.99800964  0.49685395  0.74229881     1.90100
O296        O  0.98206482  0.45236907  0.68254723    -0.72300
O297        O  0.86781295  0.46413893  0.69244477    -0.72100
O298        O  0.88881250  0.38852920  0.69283381    -0.77800
O299        O  0.85859611  0.47613972  0.73666562    -0.76000
O300        O  0.93643642  0.46476975  0.72854466    -1.12100
O301        O  0.91363637  0.48803486  0.77993079    -0.71300
C302        C  0.95170777  0.53050972  0.78053566     0.99400
C303        C  0.01176396  0.44602365  0.69701882     0.95800
Al304      Al  0.92621256  0.45878834  0.69169113     1.55600
O305        O  0.98399196  0.45325945  0.77363907    -0.75900
C306        C  0.84860582  0.47706281  0.71140044     1.00000
C307        C  0.00503688  0.55775975  0.69463984     0.94900
O308        O  0.02485812  0.54681880  0.71398812    -0.81300
O309        O  0.88237364  0.64587851  0.89640248    -0.80700
C310        C  0.70375927  0.51032945  0.95212792     0.98600
O311        O  0.72255569  0.50208351  0.93102536    -0.69800
O312        O  0.73830903  0.56407524  0.89095359    -0.73400
Al313      Al  0.77858148  0.54366840  0.90835998     1.49000
C314        C  0.75247716  0.60565607  0.88016638     0.93900
O315        O  0.79655186  0.67621291  0.93746943    -0.79600
O316        O  0.86784742  0.62084602  0.97391997    -0.73200
Al317      Al  0.83717483  0.65704490  0.91782311     1.90100
O318        O  0.79269860  0.64108091  0.97756912    -0.72300
O319        O  0.80411746  0.52665740  0.96755055    -0.72100
O320        O  0.72866688  0.54788380  0.96720781    -0.77800
O321        O  0.81612740  0.51752272  0.92331728    -0.76000
O322        O  0.80495339  0.59544565  0.93152287    -1.12100
O323        O  0.82815089  0.57268667  0.88008858    -0.71300
C324        C  0.87067573  0.61070024  0.87952492     0.99400
C325        C  0.78644372  0.67086662  0.96312528     0.95800
Al326      Al  0.79893890  0.58514113  0.96836676     1.55600
O327        O  0.79363460  0.64320028  0.88648271    -0.75900
C328        C  0.81704322  0.50748903  0.94857458     1.00000
C329        C  0.89800766  0.66378034  0.96544882     0.94900
O330        O  0.88712855  0.68372097  0.94614066    -0.81300
O331        O  0.35938371  0.22613334  0.89627928    -0.80700
C332        C  0.49507468  0.18634029  0.95192869     0.98600
O333        O  0.50321596  0.21304894  0.93079315    -0.69800
O334        O  0.44123936  0.16526640  0.89068800    -0.73400
Al335      Al  0.46164585  0.22651785  0.90821444     1.49000
C336        C  0.39965467  0.13695848  0.87990307     0.93900
O337        O  0.32920580  0.10994069  0.93718421    -0.79600
O338        O  0.38396165  0.23787444  0.97389409    -0.73200
Al339      Al  0.34823348  0.16981518  0.91762322     1.90100
O340        O  0.36437550  0.14235831  0.97731137    -0.72300
O341        O  0.47826891  0.27028775  0.96749596    -0.72100
O342        O  0.45764161  0.17347180  0.96707986    -0.77800
O343        O  0.48784882  0.29083582  0.92325585    -0.76000
O344        O  0.40982858  0.20053459  0.93136899    -1.12100
O345        O  0.43267429  0.24627232  0.88003534    -0.71300
C346        C  0.39466777  0.25012408  0.87948282     0.99400
C347        C  0.33477279  0.10556725  0.96280107     0.95800
Al348      Al  0.42004956  0.20553386  0.96823392     1.55600
O349        O  0.36213285  0.14003132  0.88623428    -0.75900
C350        C  0.49762876  0.30236216  0.94853098     1.00000
C351        C  0.34098371  0.22403437  0.96541370     0.94900
O352        O  0.32133042  0.19278638  0.94597034    -0.81300
O353        O  0.56666858  0.01930509  0.76348578    -0.80700
C354        C  0.52699688  0.15506644  0.70787523     0.98600
O355        O  0.55361048  0.16318038  0.72905469    -0.69800
O356        O  0.50570886  0.10106319  0.76906566    -0.73400
Al357      Al  0.56704576  0.12158280  0.75163066     1.49000
C358        C  0.47736877  0.05943349  0.77978597     0.93900
O359        O  0.45069232  0.98923575  0.72243632    -0.79600
O360        O  0.57881903  0.04420502  0.68593192    -0.73200
Al361      Al  0.51045919  0.00820915  0.74207724     1.90100
O362        O  0.48328061  0.02451298  0.68236136    -0.72300
O363        O  0.61108740  0.13844805  0.69241451    -0.72100
O364        O  0.51425510  0.11770220  0.69268654    -0.77800
O365        O  0.63143562  0.14789967  0.73668609    -0.76000
O366        O  0.54121094  0.06985211  0.72841085    -1.12100
O367        O  0.58671760  0.09252795  0.77981471    -0.71300
C368        C  0.59057460  0.05451918  0.78033570     0.99400
C369        C  0.44643270  0.99486512  0.69681633     0.95800
Al370      Al  0.54638243  0.08019733  0.69155739     1.55600
O371        O  0.48050345  0.02195236  0.77343792    -0.75900
C372        C  0.64307124  0.15775006  0.71142941     1.00000
C373        C  0.56496817  0.00120807  0.69437652     0.94900
O374        O  0.53359632  0.98145085  0.71374773    -0.81300
O375        O  0.46616800  0.43596827  0.76451075    -0.80700
C376        C  0.64326104  0.47778707  0.70801297     0.98600
O377        O  0.62416934  0.45088980  0.72911103    -0.69800
O378        O  0.61010084  0.49834290  0.76944152    -0.73400
Al379      Al  0.56868755  0.43699064  0.75196498     1.49000
C380        C  0.59690026  0.52637721  0.78036578     0.93900
O381        O  0.55296026  0.55272381  0.72354849    -0.79600
O382        O  0.47964968  0.42512717  0.68660588    -0.73200
Al383      Al  0.51187086  0.49259340  0.74312844     1.90100
O384        O  0.55650814  0.52096529  0.68332659    -0.72300
O385        O  0.54164903  0.39351133  0.69267092    -0.72100
O386        O  0.61890179  0.49069536  0.69312141    -0.77800
O387        O  0.52996167  0.37267195  0.73688594    -0.76000
O388        O  0.54300362  0.46265380  0.72905725    -1.12100
O389        O  0.51953309  0.41675510  0.78043246    -0.71300
C390        C  0.47734409  0.41228570  0.78117569     0.99400
C391        C  0.56303786  0.55734649  0.69788523     0.95800
Al392      Al  0.54861015  0.45801979  0.69214834     1.55600
O393        O  0.55601079  0.52279212  0.77431287    -0.75900
C394        C  0.52852916  0.36136328  0.71157389     1.00000
C395        C  0.45022845  0.43830284  0.69535244     0.94900
O396        O  0.46168273  0.46906882  0.71502439    -0.81300
C397        C  0.51458108  0.31158582  0.70435581    -0.17400
C398        C  0.50796721  0.27073449  0.70037900     0.06600
C399        C  0.50704593  0.22541451  0.69893749     0.08500
C400        C  0.51267615  0.19038229  0.70106500    -0.18300
C401        C  0.44234324  0.37906997  0.80153350    -0.17400
C402        C  0.41968699  0.34899231  0.81958393     0.06600
C403        C  0.40120292  0.31301101  0.84108967     0.08500
C404        C  0.39312881  0.28302834  0.85916703    -0.18300
C405        C  0.44281061  0.05605855  0.80059018    -0.17400
C406        C  0.42016839  0.06235164  0.81892774     0.06600
C407        C  0.40266357  0.07987781  0.84070232     0.08500
C408        C  0.39636705  0.10249614  0.85905478    -0.18300
C409        C  0.65349886  0.47485363  0.95901222    -0.17400
C410        C  0.61244782  0.43942546  0.96114042     0.06600
C411        C  0.56786204  0.39358557  0.95964969     0.08500
C412        C  0.53359272  0.35239040  0.95565590    -0.18300
C413        C  0.62850684  0.56114962  0.80104970    -0.17400
C414        C  0.65768604  0.58414075  0.81926246     0.06600
C415        C  0.69283688  0.60217336  0.84095142     0.08500
C416        C  0.72168006  0.60884173  0.85929958    -0.18300
C417        C  0.69312756  0.19369605  0.70437337    -0.17400
C418        C  0.73434785  0.22790958  0.70038976     0.06600
C419        C  0.78023085  0.27242865  0.69888420     0.08500
C420        C  0.81570504  0.31344483  0.70100333    -0.18300
C421        C  0.69323669  0.49219876  0.70098392    -0.17400
C422        C  0.73401464  0.49774304  0.69882784     0.06600
C423        C  0.77838654  0.49679250  0.70031305     0.08500
C424        C  0.81258707  0.49037564  0.70429088    -0.18300
C425        C  0.95344718  0.56524285  0.80096953    -0.17400
C426        C  0.94571407  0.58733917  0.81918381     0.06600
C427        C  0.92771233  0.60498780  0.84088435     0.08500
C428        C  0.90541978  0.61247715  0.85908612    -0.18300
C429        C  0.53043772  0.17205317  0.95872067    -0.17400
C430        C  0.56549327  0.16644192  0.96082530     0.06600
C431        C  0.61079753  0.16730115  0.95939117     0.08500
C432        C  0.65161810  0.17379111  0.95545075    -0.18300
C433        C  0.62338230  0.05286652  0.80067067    -0.17400
C434        C  0.65329553  0.06073346  0.81875205     0.06600
C435        C  0.68924948  0.07898169  0.84026689     0.08500
C436        C  0.71933391  0.10152056  0.85833229    -0.18300
C437        C  0.83038537  0.47149464  0.95565849    -0.17400
C438        C  0.83685639  0.43733702  0.95964283     0.06600
C439        C  0.83784167  0.39299645  0.96114376     0.08500
C440        C  0.83228170  0.35221784  0.95898956    -0.18300
C441        C  0.94938968  0.38123816  0.80079067    -0.17400
C442        C  0.94256909  0.35228710  0.81910658     0.06600
C443        C  0.92440396  0.31702886  0.84074597     0.08500
C444        C  0.90135969  0.28777789  0.85892149    -0.18300
C445        C  0.75853865  0.06199132  0.97756832    -0.17400
C446        C  0.74106753  0.02282471  0.98929603     0.06600
C447        C  0.71918086  0.97719843  0.00332556     0.08500
C448        C  0.69872738  0.93791047  0.01503870    -0.18300
C449        C  0.70689257  0.75952666  0.01753830    -0.17400
C450        C  0.72781240  0.74205018  0.00484171     0.06600
C451        C  0.74993328  0.71980018  0.98930641     0.08500
C452        C  0.76727089  0.69881876  0.97654001    -0.18300
C453        C  0.56766188  0.62121413  0.19272837    -0.17400
C454        C  0.59100943  0.65042806  0.17460003     0.06600
C455        C  0.60954069  0.68565444  0.15295298     0.08500
C456        C  0.61654630  0.71455568  0.13457723    -0.18300
C457        C  0.94471056  0.24148566  0.97544681    -0.17400
C458        C  0.98302746  0.25844758  0.98827520     0.06600
C459        C  0.02732094  0.27976117  0.00397884     0.08500
C460        C  0.06570483  0.29992126  0.01685330    -0.18300
C461        C  0.31373335  0.24392190  0.97845041    -0.17400
C462        C  0.29249745  0.26188109  0.99006461     0.06600
C463        C  0.26959541  0.28465645  0.00390282     0.08500
C464        C  0.25151760  0.30584705  0.01544133    -0.18300
C465        C  0.35999854  0.52602523  0.03800713    -0.17400
C466        C  0.40121503  0.56033654  0.03408623     0.06600
C467        C  0.44710033  0.60491718  0.03262318     0.08500
C468        C  0.48261217  0.64594059  0.03473201    -0.18300
C469        C  0.28949462  0.38539342  0.13452120    -0.17400
C470        C  0.31937805  0.39347706  0.15265041     0.06600
C471        C  0.35529593  0.41208287  0.17417161     0.08500
C472        C  0.38533482  0.43488784  0.19220443    -0.18300
C473        C  0.31770101  0.50746461  0.28913028    -0.17400
C474        C  0.27683642  0.50082829  0.29309312     0.06600
C475        C  0.23148804  0.49985883  0.29451941     0.08500
C476        C  0.19643545  0.50545057  0.29235539    -0.18300
C477        C  0.10932066  0.38915981  0.13399285    -0.17400
C478        C  0.08672179  0.39554768  0.15232390     0.06600
C479        C  0.06921146  0.41306480  0.17411008     0.08500
C480        C  0.06285278  0.43564337  0.19246667    -0.18300
C481        C  0.94553980  0.69055344  0.97831581    -0.17400
C482        C  0.98499050  0.71105214  0.98982958     0.06600
C483        C  0.03082138  0.73301862  0.00360321     0.08500
C484        C  0.07011266  0.75057626  0.01517432    -0.18300
C485        C  0.24932165  0.93692854  0.01739000    -0.17400
C486        C  0.26614881  0.97524822  0.00458165     0.06600
C487        C  0.28733211  0.01957486  0.98892027     0.08500
C488        C  0.30745275  0.05802110  0.97610878    -0.18300
C489        C  0.18164750  0.64390603  0.03740784    -0.17400
C490        C  0.17500948  0.60304856  0.03341808     0.06600
C491        C  0.17403912  0.55770516  0.03196789     0.08500
C492        C  0.17963011  0.52265567  0.03413563    -0.18300
C493        C  0.05941126  0.61590786  0.19218204    -0.17400
C494        C  0.06753831  0.64576864  0.17402715     0.06600
C495        C  0.08615911  0.68162209  0.15246354     0.08500
C496        C  0.10895184  0.71159694  0.13439674    -0.18300
C497        C  0.36030668  0.82469998  0.03422542    -0.17400
C498        C  0.40111167  0.83032276  0.03211220     0.06600
C499        C  0.44547661  0.82939401  0.03363380     0.08500
C500        C  0.47963842  0.82294968  0.03765399    -0.18300
C501        C  0.49863681  0.68607367  0.29250096    -0.17400
C502        C  0.50435306  0.72690449  0.29468355     0.06600
C503        C  0.50349716  0.77130677  0.29324202     0.08500
C504        C  0.49704337  0.80546937  0.28926426    -0.18300
C505        C  0.57191599  0.94568833  0.19244257    -0.17400
C506        C  0.59418705  0.93805784  0.17428112     0.06600
C507        C  0.61219119  0.92029729  0.15262626     0.08500
C508        C  0.61999445  0.89817802  0.13444804    -0.18300
C509        C  0.19992073  0.68584188  0.28884316    -0.17400
C510        C  0.23424306  0.72700802  0.29285861     0.06600
C511        C  0.27885071  0.77283824  0.29440342     0.08500
C512        C  0.31989701  0.80830114  0.29231179    -0.18300
C513        C  0.38804279  0.94182786  0.19238320    -0.17400
C514        C  0.35923332  0.93497220  0.17398614     0.06600
C515        C  0.32419407  0.91671456  0.15225013     0.08500
C516        C  0.29514180  0.89357899  0.13401887    -0.18300
C517        C  0.64048431  0.72561610  0.64313566    -0.17400
C518        C  0.62031796  0.68723838  0.65601234     0.06600
C519        C  0.59908550  0.64296127  0.67172447     0.08500
C520        C  0.58223537  0.60465677  0.68455199    -0.18300
C521        C  0.64703622  0.91174367  0.64466061    -0.17400
C522        C  0.62586813  0.92989537  0.65613517     0.06600
C523        C  0.60304361  0.95283641  0.66986329     0.08500
C524        C  0.58499527  0.97405389  0.68139354    -0.18300
C525        C  0.73164551  0.63313332  0.35051688    -0.17400
C526        C  0.69323366  0.61298182  0.33768116     0.06600
C527        C  0.64894794  0.59178398  0.32199538     0.08500
C528        C  0.61064765  0.57496409  0.30917712    -0.18300
C529        C  0.97970467  0.57737737  0.31145797    -0.17400
C530        C  0.95842944  0.59531786  0.32305587     0.06600
C531        C  0.93552849  0.61809354  0.33690971     0.08500
C532        C  0.91748979  0.63928972  0.34849217    -0.18300
C533        C  0.72967503  0.76926788  0.52596852    -0.17400
C534        C  0.73599130  0.74665869  0.50761561     0.06600
C535        C  0.75346090  0.72911587  0.48582585     0.08500
C536        C  0.77601685  0.72271398  0.46747749    -0.18300
C537        C  0.36432064  0.27125201  0.34815311    -0.17400
C538        C  0.38485336  0.31072169  0.33666832     0.06600
C539        C  0.40681921  0.35656137  0.32291458     0.08500
C540        C  0.42435685  0.39584976  0.31134920    -0.18300
C541        C  0.43326708  0.03246458  0.30938992    -0.17400
C542        C  0.41579185  0.05338866  0.32208400     0.06600
C543        C  0.39349291  0.07551119  0.33757235     0.08500
C544        C  0.37243721  0.09285449  0.35025812    -0.18300
C545        C  0.14832418  0.97924015  0.36727014    -0.17400
C546        C  0.11292710  0.93815014  0.36521944     0.06600
C547        C  0.06713410  0.89353289  0.36683655     0.08500
C548        C  0.02597822  0.85925868  0.37091970    -0.18300
C549        C  0.09178479  0.72955070  0.64461398    -0.17400
C550        C  0.07438632  0.69033768  0.65625541     0.06600
C551        C  0.05249715  0.64461911  0.67014284     0.08500
C552        C  0.03196216  0.60524553  0.68173650    -0.18300
C553        C  0.27773039  0.90905254  0.64228556    -0.17400
C554        C  0.31611546  0.92601554  0.65503838     0.06600
C555        C  0.36049509  0.94734605  0.67065073     0.08500
C556        C  0.39894784  0.96754413  0.68345172    -0.18300
C557        C  0.86328992  0.83910650  0.62586804    -0.17400
C558        C  0.89828400  0.83342809  0.62807621     0.06600
C559        C  0.94358803  0.83429546  0.62670070     0.08500
C560        C  0.98443364  0.84087038  0.62274985    -0.18300
C561        C  0.23365845  0.95487266  0.52581123    -0.17400
C562        C  0.25661111  0.98385517  0.50752000     0.06600
C563        C  0.27469185  0.01875571  0.48571695     0.08500
C564        C  0.28146723  0.04746057  0.46727569    -0.18300
C565        C  0.05201854  0.76859259  0.52549314    -0.17400
C566        C  0.02201051  0.74582597  0.50743072     0.06600
C567        C  0.98611660  0.72722001  0.48588138     0.08500
C568        C  0.95622857  0.71909507  0.46773867    -0.18300
C569        C  0.27881285  0.35839198  0.64493491    -0.17400
C570        C  0.31814061  0.37890584  0.65660100     0.06600
C571        C  0.36380464  0.40085356  0.67058556     0.08500
C572        C  0.40299156  0.41837485  0.68229075    -0.18300
C573        C  0.10035575  0.36640605  0.64259944    -0.17400
C574        C  0.08288062  0.38731083  0.65531276     0.06600
C575        C  0.06063323  0.40941699  0.67086442     0.08500
C576        C  0.03966826  0.42677343  0.68362925    -0.18300
C577        C  0.86694010  0.01971020  0.62215589    -0.17400
C578        C  0.90120967  0.06091585  0.62613801     0.06600
C579        C  0.94578172  0.10677494  0.62766628     0.08500
C580        C  0.98682759  0.14223497  0.62558195    -0.18300
C581        C  0.16515788  0.01959263  0.62601367    -0.17400
C582        C  0.17087877  0.06043308  0.62817869     0.06600
C583        C  0.17010799  0.10488585  0.62669032     0.08500
C584        C  0.16377532  0.13911989  0.62266883    -0.18300
C585        C  0.28550600  0.23118641  0.46726968    -0.17400
C586        C  0.27807260  0.25344195  0.48552520     0.06600
C587        C  0.26056380  0.27145522  0.50730210     0.08500
C588        C  0.23861437  0.27926758  0.52557498    -0.18300
C589        C  0.97360337  0.39163852  0.30953925    -0.17400
C590        C  0.95346126  0.35323439  0.32237887     0.06600
C591        C  0.93224341  0.30893585  0.33804983     0.08500
C592        C  0.91538535  0.27061868  0.35085205    -0.18300
C593        C  0.61173636  0.02465890  0.31163716    -0.17400
C594        C  0.65109976  0.04521242  0.32324554     0.06600
C595        C  0.69681908  0.06714597  0.33714012     0.08500
C596        C  0.73604509  0.08460313  0.34877697    -0.18300
C597        C  0.84579097  0.85624713  0.36763083    -0.17400
C598        C  0.84023697  0.89133184  0.36546485     0.06600
C599        C  0.84117748  0.93668383  0.36685158     0.08500
C600        C  0.84774282  0.97754140  0.37077299    -0.18300
C601        C  0.96180859  0.22729673  0.46733801    -0.17400
C602        C  0.99098520  0.25038295  0.48553718     0.06600
C603        C  0.02612807  0.26862621  0.50723564     0.08500
C604        C  0.05498544  0.27552099  0.52562107    -0.18300
C605        C  0.77551594  0.04536998  0.46784840    -0.17400
C606        C  0.75284311  0.01535704  0.48591221     0.06600
C607        C  0.73441283  0.97948418  0.50745564     0.08500
C608        C  0.72642366  0.94963515  0.52558859    -0.18300
C609        C  0.14537247  0.15650928  0.37018704    -0.17400
C610        C  0.11128406  0.16307205  0.36620946     0.06600
C611        C  0.06694019  0.16403458  0.36483536     0.08500
C612        C  0.02615383  0.15838154  0.36712030    -0.18300
loop_ 
_geom_bond_atom_site_label_1 
_geom_bond_atom_site_label_2 
_geom_bond_distance 
_geom_bond_site_symmetry_2 
_ccdc_geom_bond_type 
O1           C16   1.260       .  A
O1           Al9   1.915       .  S
C2           O12   1.257       .  A
C2            O3   1.258       .  A
C2          C612   1.430   1_655  S
O3           Al5   1.906       .  S
O4            C6   1.257       .  A
O4           Al5   1.882       .  S
Al5          O13   1.889       .  S
Al5          O15   1.907       .  S
Al5          O14   1.784       .  S
C6           O19   1.264       .  A
C6          C601   1.434       .  S
O7           C17   1.260       .  A
O7           Al9   1.905       .  S
O8           C21   1.256       .  A
O8          Al18   1.882       .  S
Al9          O22   1.915       .  S
Al9          O19   1.930       .  S
Al9          O14   1.790       .  S
O10          C17   1.259       .  A
O10         Al18   1.910       .  S
O11          C20   1.262       .  A
O11         Al18   1.922       .  S
O12         Al18   1.899       .  S
O13          C20   1.258       .  A
O14         Al18   1.791       .  S
O15          C16   1.258       .  A
C16         C605   1.441       .  S
C17         C592   1.438       .  S
C20         C600   1.432   1_545  S
C21          O22   1.261       .  A
C21         C596   1.428       .  S
O23          C38   1.260       .  A
O23         Al31   1.917       .  S
C24          O34   1.257       .  A
C24          O25   1.259       .  A
C24         C580   1.430   1_455  S
O25         Al27   1.905       .  S
O26          C28   1.257       .  A
O26         Al27   1.881       .  S
Al27         O35   1.889       .  S
Al27         O37   1.905       .  S
Al27         O36   1.783       .  S
C28          O41   1.264       .  A
C28         C604   1.434       .  S
O29          C39   1.260       .  A
O29         Al31   1.906       .  S
O30          C43   1.256       .  A
O30         Al40   1.880       .  S
Al31         O44   1.918       .  S
Al31         O41   1.931       .  S
Al31         O36   1.790       .  S
O32          C39   1.259       .  A
O32         Al40   1.909       .  S
O33          C42   1.262       .  A
O33         Al40   1.921       .  S
O34         Al40   1.899       .  S
O35          C42   1.258       .  A
O36         Al40   1.791       .  S
O37          C38   1.257       .  A
C38         C588   1.442       .  S
C39         C573   1.438       .  S
C42         C584   1.432       .  S
C43          O44   1.262       .  A
C43         C569   1.428       .  S
O45          C60   1.260       .  A
O45         Al53   1.916       .  S
C46          O56   1.257       .  A
C46          O47   1.258       .  A
C46         C581   1.431   1_565  S
O47         Al49   1.906       .  S
O48          C50   1.257       .  A
O48         Al49   1.882       .  S
Al49         O57   1.888       .  S
Al49         O59   1.907       .  S
Al49         O58   1.784       .  S
C50          O63   1.264       .  A
C50         C561   1.433       .  S
O51          C61   1.260       .  A
O51         Al53   1.905       .  S
O52          C65   1.257       .  A
O52         Al62   1.882       .  S
Al53         O66   1.915       .  S
Al53         O63   1.929       .  S
Al53         O58   1.791       .  S
O54          C61   1.259       .  A
O54         Al62   1.910       .  S
O55          C64   1.262       .  A
O55         Al62   1.921       .  S
O56         Al62   1.900       .  S
O57          C64   1.258       .  A
O58         Al62   1.791       .  S
O59          C60   1.258       .  A
C60         C565   1.442       .  S
C61         C553   1.438       .  S
C64         C560   1.431   1_455  S
C65          O66   1.261       .  A
C65         C549   1.428       .  S
O67          C82   1.260       .  A
O67         Al75   1.916       .  S
C68          O78   1.257       .  A
C68          O69   1.259       .  A
C68         C545   1.430   1_545  S
O69         Al71   1.906       .  S
O70          C72   1.257       .  A
O70         Al71   1.881       .  S
Al71         O79   1.889       .  S
Al71         O81   1.906       .  S
Al71         O80   1.783       .  S
C72          O85   1.264       .  A
C72         C564   1.433       .  S
O73          C83   1.260       .  A
O73         Al75   1.905       .  S
O74          C87   1.256       .  A
O74         Al84   1.880       .  S
Al75         O88   1.917       .  S
Al75         O85   1.929       .  S
Al75         O80   1.790       .  S
O76          C83   1.259       .  A
O76         Al84   1.910       .  S
O77          C86   1.261       .  A
O77         Al84   1.921       .  S
O78         Al84   1.898       .  S
O79          C86   1.258       .  A
O80         Al84   1.791       .  S
O81          C82   1.258       .  A
C82         C585   1.442       .  S
C83         C544   1.438       .  S
C86         C609   1.431       .  S
C87          O88   1.262       .  A
C87         C537   1.427       .  S
O89         C104   1.261       .  A
O89         Al97   1.917       .  S
C90         O100   1.257       .  A
C90          O91   1.259       .  A
C90         C597   1.431       .  S
O91         Al93   1.906       .  S
O92          C94   1.257       .  A
O92         Al93   1.882       .  S
Al93        O101   1.889       .  S
Al93        O103   1.906       .  S
Al93        O102   1.783       .  S
C94         O107   1.264       .  A
C94         C536   1.433       .  S
O95         C105   1.260       .  A
O95         Al97   1.906       .  S
O96         C109   1.257       .  A
O96        Al106   1.882       .  S
Al97        O110   1.917       .  S
Al97        O107   1.929       .  S
Al97        O102   1.791       .  S
O98         C105   1.259       .  A
O98        Al106   1.908       .  S
O99         C108   1.261       .  A
O99        Al106   1.919       .  S
O100       Al106   1.899       .  S
O101        C108   1.258       .  A
O102       Al106   1.791       .  S
O103        C104   1.258       .  A
C104        C568   1.442       .  S
C105        C525   1.438       .  S
C108        C548   1.431   1_655  S
C109        O110   1.262       .  A
C109        C532   1.429       .  S
O111        C126   1.260       .  A
O111       Al119   1.916       .  S
C112        O122   1.257       .  A
C112        O113   1.259       .  A
C112        C557   1.430       .  S
O113       Al115   1.906       .  S
O114        C116   1.257       .  A
O114       Al115   1.882       .  S
Al115       O123   1.889       .  S
Al115       O125   1.906       .  S
Al115       O124   1.783       .  S
C116        O129   1.263       .  A
C116        C533   1.433       .  S
O117        C127   1.260       .  A
O117       Al119   1.906       .  S
O118        C131   1.256       .  A
O118       Al128   1.882       .  S
Al119       O132   1.917       .  S
Al119       O129   1.929       .  S
Al119       O124   1.791       .  S
O120        C127   1.259       .  A
O120       Al128   1.909       .  S
O121        C130   1.261       .  A
O121       Al128   1.919       .  S
O122       Al128   1.898       .  S
O123        C130   1.257       .  A
O124       Al128   1.791       .  S
O125        C126   1.258       .  A
C126        C608   1.441       .  S
C127        C517   1.438       .  S
C130        C577   1.431   1_565  S
C131        O132   1.262       .  A
C131        C521   1.428       .  S
O133        C148   1.260       .  A
O133       Al141   1.917       .  S
C134        O144   1.257       .  A
C134        O135   1.259       .  A
C134        C512   1.430       .  S
O135       Al137   1.906       .  S
O136        C138   1.257       .  A
O136       Al137   1.881       .  S
Al137       O145   1.889       .  S
Al137       O147   1.906       .  S
Al137       O146   1.783       .  S
C138        O151   1.264       .  A
C138        C513   1.433       .  S
O139        C149   1.260       .  A
O139       Al141   1.906   1_545  S
O140        C153   1.256       .  A
O140       Al150   1.880       .  S
Al141       O154   1.917   1_565  S
Al141       O151   1.930       .  S
Al141       O146   1.790       .  S
O142        C149   1.259   1_565  A
O142       Al150   1.910       .  S
O143        C152   1.262       .  A
O143       Al150   1.921       .  S
O144       Al150   1.899       .  S
O145        C152   1.258       .  A
O146       Al150   1.790       .  S
O147        C148   1.258       .  A
C148        C505   1.442       .  S
C149        C541   1.438       .  S
C152        C504   1.431       .  S
C153        O154   1.262   1_565  A
C153        C593   1.428   1_565  S
O155        C170   1.260       .  A
O155       Al163   1.916       .  S
C156        O166   1.257       .  A
C156        O157   1.258       .  A
C156        C497   1.431       .  S
O157       Al159   1.906       .  S
O158        C160   1.257       .  A
O158       Al159   1.882       .  S
Al159       O167   1.889       .  S
Al159       O169   1.907       .  S
Al159       O168   1.784       .  S
C160        O173   1.264       .  A
C160        C516   1.433       .  S
O161        C171   1.260       .  A
O161       Al163   1.905       .  S
O162        C175   1.257       .  A
O162       Al172   1.882       .  S
Al163       O176   1.915       .  S
Al163       O173   1.929       .  S
Al163       O168   1.791       .  S
O164        C171   1.259       .  A
O164       Al172   1.910       .  S
O165        C174   1.262       .  A
O165       Al172   1.921       .  S
O166       Al172   1.900       .  S
O167        C174   1.258       .  A
O168       Al172   1.791       .  S
O169        C170   1.258       .  A
C170        C496   1.442       .  S
C171        C485   1.438       .  S
C174        C489   1.431       .  S
C175        O176   1.261       .  A
C175        C484   1.428       .  S
O177        C192   1.261       .  A
O177       Al185   1.917       .  S
C178        O188   1.257       .  A
C178        O179   1.259       .  A
C178        C476   1.430       .  S
O179       Al181   1.905       .  S
O180        C182   1.257       .  A
O180       Al181   1.882       .  S
Al181       O189   1.889       .  S
Al181       O191   1.906       .  S
Al181       O190   1.783       .  S
C182        O195   1.263       .  A
C182        C480   1.433       .  S
O183        C193   1.260   1_655  A
O183       Al185   1.906   1_655  S
O184        C197   1.257       .  A
O184       Al194   1.882       .  S
Al185       O198   1.917   1_455  S
Al185       O195   1.929       .  S
Al185       O190   1.791       .  S
O186        C193   1.259       .  A
O186       Al194   1.909       .  S
O187        C196   1.261       .  A
O187       Al194   1.919       .  S
O188       Al194   1.899       .  S
O189        C196   1.258       .  A
O190       Al194   1.791       .  S
O191        C192   1.258       .  A
C192        C493   1.442       .  S
C193        C589   1.438   1_455  S
C196        C509   1.431       .  S
C197        O198   1.262   1_455  A
C197        C529   1.429   1_455  S
O199        C214   1.260       .  A
O199       Al207   1.916       .  S
C200        O210   1.257       .  A
C200        O201   1.259       .  A
C200        C492   1.430       .  S
O201       Al203   1.905       .  S
O202        C204   1.257       .  A
O202       Al203   1.882       .  S
Al203       O211   1.889       .  S
Al203       O213   1.905       .  S
Al203       O212   1.783       .  S
C204        O217   1.263       .  A
C204        C477   1.433       .  S
O205        C215   1.260       .  A
O205       Al207   1.906       .  S
O206        C219   1.256       .  A
O206       Al216   1.882       .  S
Al207       O220   1.917       .  S
Al207       O217   1.929       .  S
Al207       O212   1.791       .  S
O208        C215   1.259       .  A
O208       Al216   1.909       .  S
O209        C218   1.261       .  A
O209       Al216   1.920       .  S
O210       Al216   1.898       .  S
O211        C218   1.258       .  A
O212       Al216   1.791       .  S
O213        C214   1.258       .  A
C214        C469   1.441       .  S
C215        C460   1.438       .  S
C218        C465   1.431       .  S
C219        O220   1.262       .  A
C219        C464   1.429       .  S
O221        C236   1.260       .  A
O221       Al229   1.917       .  S
C222        O232   1.257       .  A
C222        O223   1.259       .  A
C222        C468   1.430       .  S
O223       Al225   1.906       .  S
O224        C226   1.257       .  A
O224       Al225   1.881       .  S
Al225       O233   1.889       .  S
Al225       O235   1.906       .  S
Al225       O234   1.783       .  S
C226        O239   1.264       .  A
C226        C456   1.433       .  S
O227        C237   1.260       .  A
O227       Al229   1.905       .  S
O228        C241   1.256       .  A
O228       Al238   1.880       .  S
Al229       O242   1.918       .  S
Al229       O239   1.931       .  S
Al229       O234   1.790       .  S
O230        C237   1.259       .  A
O230       Al238   1.910       .  S
O231        C240   1.262       .  A
O231       Al238   1.921       .  S
O232       Al238   1.899       .  S
O233        C240   1.258       .  A
O234       Al238   1.791       .  S
O235        C236   1.258       .  A
C236        C508   1.442       .  S
C237        C449   1.438       .  S
C240        C500   1.432       .  S
C241        O242   1.262       .  A
C241        C448   1.429       .  S
O243        C258   1.260       .  A
O243       Al251   1.915       .  S
C244        O254   1.257       .  A
C244        O245   1.258       .  A
C244        C501   1.431       .  S
O245       Al247   1.906       .  S
O246        C248   1.257       .  A
O246       Al247   1.882       .  S
Al247       O255   1.889       .  S
Al247       O257   1.907       .  S
Al247       O256   1.784       .  S
C248        O261   1.264       .  A
C248        C453   1.433       .  S
O249        C259   1.260       .  A
O249       Al251   1.905       .  S
O250        C263   1.256       .  A
O250       Al260   1.882       .  S
Al251       O264   1.915       .  S
Al251       O261   1.929       .  S
Al251       O256   1.790       .  S
O252        C259   1.259       .  A
O252       Al260   1.909       .  S
O253        C262   1.262       .  A
O253       Al260   1.921       .  S
O254       Al260   1.899       .  S
O255        C262   1.258       .  A
O256       Al260   1.790       .  S
O257        C258   1.258       .  A
C258        C472   1.441       .  S
C259        C528   1.438       .  S
C262        C473   1.431       .  S
C263        O264   1.261       .  A
C263        C540   1.428       .  S
O265        C280   1.260       .  A
O265       Al273   1.916       .  S
C266        O276   1.257       .  A
C266        O267   1.258       .  A
C266        C440   1.431       .  S
O267       Al269   1.905       .  S
O268        C270   1.257       .  A
O268       Al269   1.882       .  S
Al269       O277   1.889       .  S
Al269       O279   1.906       .  S
Al269       O278   1.784       .  S
C270        O283   1.264       .  A
C270        C444   1.434       .  S
O271        C281   1.260       .  A
O271       Al273   1.906       .  S
O272        C285   1.257       .  A
O272       Al282   1.883       .  S
Al273       O286   1.916       .  S
Al273       O283   1.930       .  S
Al273       O278   1.791       .  S
O274        C281   1.259       .  A
O274       Al282   1.910       .  S
O275        C284   1.262       .  A
O275       Al282   1.921       .  S
O276       Al282   1.900       .  S
O277        C284   1.258       .  A
O278       Al282   1.791       .  S
O279        C280   1.257       .  A
C280        C436   1.442       .  S
C281        C457   1.439       .  S
C284        C432   1.431       .  S
C285        O286   1.262       .  A
C285        C445   1.429       .  S
O287        C302   1.260       .  A
O287       Al295   1.916       .  S
C288        O298   1.257       .  A
C288        O289   1.259       .  A
C288        C420   1.430       .  S
O289       Al291   1.905       .  S
O290        C292   1.257       .  A
O290       Al291   1.882       .  S
Al291       O299   1.890       .  S
Al291       O301   1.906       .  S
Al291       O300   1.783       .  S
C292        O305   1.264       .  A
C292        C441   1.434       .  S
O293        C303   1.260       .  A
O293       Al295   1.905   1_455  S
O294        C307   1.256   1_655  A
O294       Al304   1.880       .  S
Al295       O308   1.918   1_655  S
Al295       O305   1.930       .  S
Al295       O300   1.790       .  S
O296        C303   1.259   1_655  A
O296       Al304   1.910       .  S
O297        C306   1.262       .  A
O297       Al304   1.922       .  S
O298       Al304   1.898       .  S
O299        C306   1.258       .  A
O300       Al304   1.790       .  S
O301        C302   1.258       .  A
C302        C425   1.441       .  S
C303        C576   1.438       .  S
C306        C424   1.432       .  S
C307        O308   1.262       .  A
C307        C552   1.428       .  S
O309        C324   1.260       .  A
O309       Al317   1.916       .  S
C310        O320   1.257       .  A
C310        O311   1.259       .  A
C310        C409   1.430       .  S
O311       Al313   1.906       .  S
O312        C314   1.257       .  A
O312       Al313   1.882       .  S
Al313       O321   1.889       .  S
Al313       O323   1.906       .  S
Al313       O322   1.783       .  S
C314        O327   1.264       .  A
C314        C416   1.433       .  S
O315        C325   1.260       .  A
O315       Al317   1.905       .  S
O316        C329   1.256       .  A
O316       Al326   1.880       .  S
Al317       O330   1.917       .  S
Al317       O327   1.930       .  S
Al317       O322   1.790       .  S
O318        C325   1.259       .  A
O318       Al326   1.910       .  S
O319        C328   1.262       .  A
O319       Al326   1.921       .  S
O320       Al326   1.898       .  S
O321        C328   1.258       .  A
O322       Al326   1.790       .  S
O323        C324   1.258       .  A
C324        C428   1.442       .  S
C325        C452   1.438       .  S
C328        C437   1.432       .  S
C329        O330   1.262       .  A
C329        C481   1.428       .  S
O331        C346   1.261       .  A
O331       Al339   1.917       .  S
C332        O342   1.257       .  A
C332        O333   1.258       .  A
C332        C429   1.431       .  S
O333       Al335   1.905       .  S
O334        C336   1.257       .  A
O334       Al335   1.882       .  S
Al335       O343   1.888       .  S
Al335       O345   1.906       .  S
Al335       O344   1.783       .  S
C336        O349   1.263       .  A
C336        C408   1.433       .  S
O337        C347   1.260       .  A
O337       Al339   1.906       .  S
O338        C351   1.256       .  A
O338       Al348   1.882       .  S
Al339       O352   1.917       .  S
Al339       O349   1.929       .  S
Al339       O344   1.791       .  S
O340        C347   1.259       .  A
O340       Al348   1.909       .  S
O341        C350   1.261       .  A
O341       Al348   1.919       .  S
O342       Al348   1.899       .  S
O343        C350   1.258       .  A
O344       Al348   1.791       .  S
O345        C346   1.258       .  A
C346        C404   1.442       .  S
C347        C488   1.438       .  S
C350        C412   1.431       .  S
C351        O352   1.262       .  A
C351        C461   1.429       .  S
O353        C368   1.260       .  A
O353       Al361   1.917       .  S
C354        O364   1.257       .  A
C354        O355   1.259       .  A
C354        C400   1.430       .  S
O355       Al357   1.906       .  S
O356        C358   1.257       .  A
O356       Al357   1.882       .  S
Al357       O365   1.888       .  S
Al357       O367   1.906       .  S
Al357       O366   1.783       .  S
C358        O371   1.263       .  A
C358        C405   1.433       .  S
O359        C369   1.260       .  A
O359       Al361   1.906   1_565  S
O360        C373   1.256       .  A
O360       Al370   1.882       .  S
Al361       O374   1.916   1_545  S
Al361       O371   1.929       .  S
Al361       O366   1.790       .  S
O362        C369   1.259   1_545  A
O362       Al370   1.909       .  S
O363        C372   1.261       .  A
O363       Al370   1.919       .  S
O364       Al370   1.898       .  S
O365        C372   1.258       .  A
O366       Al370   1.791       .  S
O367        C368   1.258       .  A
C368        C433   1.442       .  S
C369        C556   1.438       .  S
C372        C417   1.431       .  S
C373        O374   1.261   1_545  A
C373        C524   1.428   1_545  S
O375        C390   1.260       .  A
O375       Al383   1.917       .  S
C376        O386   1.257       .  A
C376        O377   1.258       .  A
C376        C421   1.431       .  S
O377       Al379   1.905       .  S
O378        C380   1.257       .  A
O378       Al379   1.882       .  S
Al379       O387   1.888       .  S
Al379       O389   1.906       .  S
Al379       O388   1.784       .  S
C380        O393   1.264       .  A
C380        C413   1.433       .  S
O381        C391   1.260       .  A
O381       Al383   1.906       .  S
O382        C395   1.257       .  A
O382       Al392   1.882       .  S
Al383       O396   1.916       .  S
Al383       O393   1.930       .  S
Al383       O388   1.791       .  S
O384        C391   1.259       .  A
O384       Al392   1.909       .  S
O385        C394   1.262       .  A
O385       Al392   1.921       .  S
O386       Al392   1.900       .  S
O387        C394   1.258       .  A
O388       Al392   1.791       .  S
O389        C390   1.258       .  A
C390        C401   1.442       .  S
C391        C520   1.439       .  S
C394        C397   1.431       .  S
C395        O396   1.261       .  A
C395        C572   1.429       .  S
C397        C398   1.203       .  T
C398        C399   1.408       .  S
C399        C400   1.203       .  T
C401        C402   1.210       .  T
C402        C403   1.419       .  S
C403        C404   1.210       .  T
C405        C406   1.204       .  T
C406        C407   1.410       .  S
C407        C408   1.204       .  T
C409        C410   1.202       .  T
C410        C411   1.407       .  S
C411        C412   1.203       .  T
C413        C414   1.204       .  T
C414        C415   1.410       .  S
C415        C416   1.204       .  T
C417        C418   1.203       .  T
C418        C419   1.407       .  S
C419        C420   1.202       .  T
C421        C422   1.203       .  T
C422        C423   1.409       .  S
C423        C424   1.204       .  T
C425        C426   1.210       .  T
C426        C427   1.419       .  S
C427        C428   1.210       .  T
C429        C430   1.203       .  T
C430        C431   1.408       .  S
C431        C432   1.203       .  T
C433        C434   1.210       .  T
C434        C435   1.419       .  S
C435        C436   1.210       .  T
C437        C438   1.203       .  T
C438        C439   1.408       .  S
C439        C440   1.203       .  T
C441        C442   1.205       .  T
C442        C443   1.411       .  S
C443        C444   1.205       .  T
C445        C446   1.202       .  T
C446        C447   1.406   1_546  S
C447        C448   1.202       .  T
C449        C450   1.208       .  T
C450        C451   1.415   1_554  S
C451        C452   1.208       .  T
C453        C454   1.205       .  T
C454        C455   1.410       .  S
C455        C456   1.205       .  T
C457        C458   1.208       .  T
C458        C459   1.416   1_656  S
C459        C460   1.208       .  T
C461        C462   1.202       .  T
C462        C463   1.406   1_556  S
C463        C464   1.202       .  T
C465        C466   1.203       .  T
C466        C467   1.408       .  S
C467        C468   1.203       .  T
C469        C470   1.210       .  T
C470        C471   1.419       .  S
C471        C472   1.210       .  T
C473        C474   1.203       .  T
C474        C475   1.408       .  S
C475        C476   1.203       .  T
C477        C478   1.205       .  T
C478        C479   1.410       .  S
C479        C480   1.205       .  T
C481        C482   1.201       .  T
C482        C483   1.405   1_656  S
C483        C484   1.201       .  T
C485        C486   1.208       .  T
C486        C487   1.416   1_564  S
C487        C488   1.208       .  T
C489        C490   1.203       .  T
C490        C491   1.408       .  S
C491        C492   1.203       .  T
C493        C494   1.210       .  T
C494        C495   1.419       .  S
C495        C496   1.210       .  T
C497        C498   1.203       .  T
C498        C499   1.408       .  S
C499        C500   1.203       .  T
C501        C502   1.203       .  T
C502        C503   1.408       .  S
C503        C504   1.203       .  T
C505        C506   1.210       .  T
C506        C507   1.419       .  S
C507        C508   1.210       .  T
C509        C510   1.203       .  T
C510        C511   1.408       .  S
C511        C512   1.203       .  T
C513        C514   1.204       .  T
C514        C515   1.410       .  S
C515        C516   1.204       .  T
C517        C518   1.208       .  T
C518        C519   1.416       .  S
C519        C520   1.208       .  T
C521        C522   1.202       .  T
C522        C523   1.406       .  S
C523        C524   1.202       .  T
C525        C526   1.208       .  T
C526        C527   1.415       .  S
C527        C528   1.208       .  T
C529        C530   1.202       .  T
C530        C531   1.406       .  S
C531        C532   1.202       .  T
C533        C534   1.204       .  T
C534        C535   1.410       .  S
C535        C536   1.204       .  T
C537        C538   1.201       .  T
C538        C539   1.405       .  S
C539        C540   1.201       .  T
C541        C542   1.208       .  T
C542        C543   1.415       .  S
C543        C544   1.208       .  T
C545        C546   1.203       .  T
C546        C547   1.407       .  S
C547        C548   1.203       .  T
C549        C550   1.201       .  T
C550        C551   1.405       .  S
C551        C552   1.201       .  T
C553        C554   1.208       .  T
C554        C555   1.415       .  S
C555        C556   1.208       .  T
C557        C558   1.203       .  T
C558        C559   1.408       .  S
C559        C560   1.203       .  T
C561        C562   1.204       .  T
C562        C563   1.410   1_565  S
C563        C564   1.204       .  T
C565        C566   1.210       .  T
C566        C567   1.419   1_455  S
C567        C568   1.210       .  T
C569        C570   1.202       .  T
C570        C571   1.406       .  S
C571        C572   1.202       .  T
C573        C574   1.208       .  T
C574        C575   1.415       .  S
C575        C576   1.208       .  T
C577        C578   1.203       .  T
C578        C579   1.408       .  S
C579        C580   1.203       .  T
C581        C582   1.203       .  T
C582        C583   1.408       .  S
C583        C584   1.203       .  T
C585        C586   1.210       .  T
C586        C587   1.419       .  S
C587        C588   1.210       .  T
C589        C590   1.208       .  T
C590        C591   1.415       .  S
C591        C592   1.208       .  T
C593        C594   1.201       .  T
C594        C595   1.405       .  S
C595        C596   1.201       .  T
C597        C598   1.203       .  T
C598        C599   1.408       .  S
C599        C600   1.203       .  T
C601        C602   1.205       .  T
C602        C603   1.411   1_655  S
C603        C604   1.205       .  T
C605        C606   1.210       .  T
C606        C607   1.419   1_545  S
C607        C608   1.210       .  T
C609        C610   1.203       .  T
C610        C611   1.408       .  S
C611        C612   1.203       .  T
