geometry optimzed in LAMMPS
_audit_creation_date              2020-12-01 
_audit_creation_method            'lammps2cif' 
_symmetry_space_group_name_H-M    'P1' 
_symmetry_Int_Tables_number       1 
_symmetry_cell_setting            triclinic 
loop_ 
_symmetry_equiv_pos_as_xyz 
  x,y,z 
_cell_length_a                    42.21533768 
_cell_length_b                    42.44838085482575 
_cell_length_c                    45.445023846741165 
_cell_angle_alpha                 90.46803072744233 
_cell_angle_beta                  89.59262092707037 
_cell_angle_gamma                 119.96412975899489 
loop_ 
_atom_site_label 
_atom_site_type_symbol 
_atom_site_fract_x 
_atom_site_fract_y 
_atom_site_fract_z 
_atom_site_charge 
N1          N  0.51793888  0.30351122  0.42615022    -0.26300
N2          N  0.52386110  0.32203379  0.40154680    -0.34100
C3          C  0.52700932  0.35445760  0.40784928     0.02100
C4          C  0.52222393  0.35639134  0.43787704     0.08100
C5          C  0.51664748  0.32354295  0.44877019    -0.05000
H6          H  0.53131902  0.37469511  0.39157430     0.08700
H7          H  0.51069425  0.31429237  0.47130779     0.09900
Cu8        Cu  0.52279039  0.30069047  0.36015160     0.44200
Cu9        Cu  0.51015357  0.25112351  0.42695659     0.42000
Cu10       Cu  0.49322422  0.20482068  0.35553470     0.43900
N11         N  0.51578565  0.27312944  0.32071034    -0.33700
N12         N  0.50445988  0.23797777  0.31866578    -0.27900
C13         C  0.50324927  0.22903537  0.28997733    -0.04000
C14         C  0.51431357  0.26007891  0.27330628     0.08200
C15         C  0.52197532  0.28742303  0.29356337     0.02000
H16         H  0.49536616  0.20204786  0.28189069     0.09600
H17         H  0.53156591  0.31573395  0.28897943     0.08700
N18         N  0.49271957  0.18104942  0.39578402    -0.35100
N19         N  0.50135683  0.19866548  0.42121692    -0.27300
C20         C  0.50357319  0.17732948  0.44190366    -0.02500
C21         C  0.49532099  0.14420208  0.42920089     0.06100
C22         C  0.48816292  0.14767261  0.39991892     0.04200
H23         H  0.51179296  0.18591913  0.46437033     0.09300
H24         H  0.48088298  0.12767908  0.38257043     0.08100
N25         N  0.73394386  0.52178843  0.42864902    -0.26300
N26         N  0.72869995  0.53904033  0.40683890    -0.34100
C27         C  0.69877811  0.54153711  0.41259212     0.02100
C28         C  0.68397334  0.52462642  0.43919962     0.08100
C29         C  0.70714029  0.51241849  0.44871775    -0.05000
H30         H  0.68873844  0.55492926  0.39844367     0.08700
H31         H  0.70467085  0.49766322  0.46867154     0.09900
Cu32       Cu  0.76105462  0.55676120  0.36936873     0.44200
Cu33       Cu  0.77827810  0.51337488  0.43035599     0.42000
Cu34       Cu  0.84204430  0.54933538  0.36837519     0.43900
N35         N  0.79294602  0.56578066  0.33209900    -0.33700
N36         N  0.82268878  0.56287930  0.33158150    -0.27900
C37         C  0.83427775  0.56547795  0.30357100    -0.04000
C38         C  0.81054489  0.57006879  0.28563694     0.08200
C39         C  0.78482850  0.57038063  0.30449069     0.02000
H40         H  0.85689744  0.56192481  0.29663376     0.09600
H41         H  0.76061246  0.57133797  0.29845529     0.08700
N42         N  0.85122806  0.52806986  0.40618279    -0.35100
N43         N  0.82743537  0.51347373  0.42797310    -0.27300
C44         C  0.84132363  0.50096888  0.44832994    -0.02500
C45         C  0.87578077  0.50843734  0.43917054     0.06100
C46         C  0.88105713  0.52572353  0.41234427     0.04200
H47         H  0.82734351  0.48762465  0.46843125     0.09300
H48         H  0.90508854  0.53635131  0.39842322     0.08100
N49         N  0.72027449  0.18959120  0.42000207    -0.26300
N50         N  0.70566370  0.17555515  0.39417318    -0.34100
C51         C  0.67225049  0.14651347  0.39848043     0.02100
C52         C  0.66556422  0.14177391  0.42852681     0.08100
C53         C  0.69673381  0.16969828  0.44141766    -0.05000
H54         H  0.65428075  0.12984340  0.38098654     0.08700
H55         H  0.70225136  0.17480748  0.46471676     0.09900
Cu56       Cu  0.73298761  0.19582100  0.35449489     0.44200
Cu57       Cu  0.77142705  0.23539339  0.42472602     0.42000
Cu58       Cu  0.81926326  0.28149205  0.35795182     0.43900
N59         N  0.76624994  0.22056870  0.31813759    -0.33700
N60         N  0.79731616  0.25193338  0.31929915    -0.27900
C61         C  0.81143719  0.26079048  0.29197244    -0.04000
C62         C  0.78817936  0.23375401  0.27269613     0.08200
C63         C  0.75988450  0.20864157  0.29007072     0.02000
H64         H  0.83651840  0.28542154  0.28650545     0.09600
H65         H  0.73597674  0.18393865  0.28279923     0.08700
N66         N  0.83757465  0.30160543  0.40016345    -0.35100
N67         N  0.82078329  0.28388322  0.42435889    -0.27300
C68         C  0.84040318  0.30269760  0.44790639    -0.02500
C69         C  0.87097789  0.33410452  0.43824262     0.06100
C70         C  0.86815470  0.33247334  0.40777846     0.04200
H71         H  0.83305406  0.29385070  0.47042730     0.09300
H72         H  0.88703350  0.35221454  0.39224951     0.08100
C73         C  0.98631436  0.48959542  0.49998191     0.03300
C74         C  0.98591163  0.45612484  0.50266562     0.03200
C75         C  0.01393809  0.45523761  0.51833444    -0.17300
C76         C  0.04211709  0.48663291  0.53163441     0.03300
C77         C  0.04226642  0.52002701  0.52946626     0.03200
C78         C  0.01454447  0.52101247  0.51337995    -0.17300
H79         H  0.01459115  0.54649623  0.51164504     0.05300
H80         H  0.01394920  0.42978160  0.52005527     0.05300
N81         N  0.51836357  0.70942337  0.59616718    -0.26300
N82         N  0.53337722  0.70265791  0.61886046    -0.34100
C83         C  0.53756582  0.67401981  0.61253092     0.02100
C84         C  0.52393368  0.66128783  0.58459995     0.08100
C85         C  0.51193790  0.68458980  0.57489773    -0.05000
H86         H  0.55020741  0.66363708  0.62715185     0.08700
H87         H  0.49960261  0.68374880  0.55394935     0.09900
Cu88       Cu  0.54692819  0.73169149  0.65798132     0.44200
Cu89       Cu  0.51129067  0.75468927  0.59500182     0.42000
Cu90       Cu  0.55356011  0.81875505  0.65691881     0.43900
N91         N  0.55620015  0.76295292  0.69555121    -0.33700
N92         N  0.55946631  0.79557176  0.69529460    -0.27900
C93         C  0.56333707  0.80796322  0.72318947    -0.04000
C94         C  0.56216600  0.78169545  0.74182554     0.08200
C95         C  0.55763746  0.75356376  0.72349926     0.02000
H96         H  0.56517022  0.83345848  0.72952078     0.09600
H97         H  0.55447050  0.72769785  0.73001094     0.08700
N98         N  0.53671588  0.83105851  0.61772357    -0.35100
N99         N  0.51835039  0.80698550  0.59686345    -0.27300
C100        C  0.50881780  0.82306386  0.57607901    -0.06100
C101        C  0.52274146  0.85950912  0.58347580     0.06100
C102        C  0.54042416  0.86331829  0.61013032     0.04200
H103        H  0.49297350  0.80899021  0.55686673     0.09300
H104        H  0.55557573  0.88784976  0.62300666     0.08100
N105        N  0.30958757  0.48246201  0.60028070    -0.26300
N106        N  0.32721288  0.48626357  0.62516159    -0.34100
C107        C  0.36058868  0.49126725  0.61887796     0.02100
C108        C  0.36412732  0.49024578  0.58857729     0.08100
C109        C  0.33114189  0.48457028  0.57755217    -0.05000
H110        H  0.38077741  0.49519925  0.63523829     0.08700
H111        H  0.32314267  0.48171120  0.55469084     0.09900
Cu112      Cu  0.30467559  0.48305544  0.66663395     0.44200
Cu113      Cu  0.25760063  0.47597652  0.59827389     0.42000
Cu114      Cu  0.21703736  0.47836426  0.66835986     0.43900
N115        N  0.27564070  0.47762173  0.70523035    -0.33700
N116        N  0.24362131  0.47616904  0.70578956    -0.27900
C117        C  0.23213758  0.47312962  0.73384723    -0.04000
C118        C  0.25810998  0.47252785  0.75184293     0.08200
C119        C  0.28532587  0.47539199  0.73297011     0.02000
H120        H  0.20677817  0.47163278  0.74061582     0.09600
H121        H  0.31046925  0.47622587  0.73893132     0.08700
N122        N  0.19507250  0.47905743  0.62789764    -0.35100
N123        N  0.20905713  0.47676373  0.60240416    -0.27300
C124        C  0.18790754  0.47705153  0.58055832    -0.02500
C125        C  0.15938618  0.48010560  0.59282148     0.06100
C126        C  0.16494855  0.48136787  0.62292791     0.04200
H127        H  0.19298690  0.47514965  0.55743074     0.09300
H128        H  0.14851095  0.48407037  0.64002428     0.08100
N129        N  0.30475866  0.79895001  0.59438040    -0.26300
N130        N  0.30700265  0.82457920  0.61234115    -0.34100
C131        C  0.33365668  0.85693847  0.60291330     0.02100
C132        C  0.35088819  0.85207837  0.57851036     0.08100
C133        C  0.33136549  0.81449267  0.57387502    -0.05000
H134        H  0.33973845  0.88243984  0.61344347     0.08700
H135        H  0.33613965  0.79911345  0.55701775     0.09900
Cu136      Cu  0.27829519  0.81477066  0.65177419     0.44200
Cu137      Cu  0.26177637  0.74512834  0.59677141     0.42000
Cu138      Cu  0.19799191  0.72932143  0.65725407     0.43900
N139        N  0.25255691  0.79413347  0.69198678    -0.33700
N140        N  0.22249387  0.76208823  0.69382520    -0.27900
C141        C  0.21424132  0.75353232  0.72235577    -0.04000
C142        C  0.24037185  0.78152820  0.73944747     0.08200
C143        C  0.26424344  0.80694042  0.71941015     0.02000
H144        H  0.19174661  0.72801988  0.73006770     0.09600
H145        H  0.28925185  0.83189921  0.72436426     0.08700
N146        N  0.18512945  0.69610529  0.62026818    -0.35100
N147        N  0.20890385  0.70009933  0.59946118    -0.27300
C148        C  0.19221999  0.67264722  0.57990569    -0.02500
C149        C  0.15602251  0.65048271  0.58851381     0.06100
C150        C  0.15271357  0.66652372  0.61419844     0.04200
H151        H  0.20550249  0.66926607  0.56066824     0.09300
H152        H  0.12835610  0.65756520  0.62750340     0.08100
C153        C  0.50287023  0.02380650  0.48516828     0.03300
C154        C  0.53730209  0.02533415  0.48685456     0.03200
C155        C  0.54016766  0.99846488  0.50258218    -0.17300
C156        C  0.50984247  0.97007477  0.51671462     0.03300
C157        C  0.47544179  0.96807780  0.51480091     0.03200
C158        C  0.47228462  0.99462363  0.49882587    -0.17300
H159        H  0.44582524  0.99287337  0.49748025     0.05300
H160        H  0.56649074  0.99992730  0.50415740     0.05300
C161        C  0.55410974  0.51141984  0.49705914     0.03300
C162        C  0.52112795  0.47756366  0.49744467     0.03200
C163        C  0.49019646  0.47491234  0.51131686    -0.17300
C164        C  0.49139705  0.50497835  0.52543266     0.03300
C165        C  0.52448229  0.53892638  0.52537063     0.03200
C166        C  0.55536641  0.54165774  0.51106179    -0.17300
H167        H  0.58071070  0.56748476  0.51100114     0.05300
H168        H  0.46495137  0.44898109  0.51141741     0.05300
N169        N  0.73843000  0.54224273  0.10730162    -0.26300
N170        N  0.72975078  0.55184730  0.13248858    -0.34100
C171        C  0.70009058  0.55526516  0.12855809     0.02100
C172        C  0.68904493  0.54694645  0.09953680     0.08100
C173        C  0.71400708  0.53864286  0.08679970    -0.05000
H174        H  0.68804664  0.56401613  0.14553826     0.08700
H175        H  0.71468182  0.53097302  0.06412412     0.09900
Cu176      Cu  0.75804066  0.55960061  0.17130505     0.44200
Cu177      Cu  0.78469260  0.53722106  0.10143969     0.42000
Cu178      Cu  0.83615641  0.54706438  0.16803408     0.43900
N179        N  0.78900054  0.56371800  0.20771963    -0.33700
N180        N  0.81767063  0.55902714  0.20669900    -0.27900
C181        C  0.83074856  0.56198282  0.23413468    -0.04000
C182        C  0.80906721  0.56866447  0.25327055     0.08200
C183        C  0.78294130  0.56963901  0.23574590     0.02000
H184        H  0.85350521  0.55830660  0.23979562     0.09600
H185        H  0.76040304  0.57320436  0.24290071     0.08700
N186        N  0.85154257  0.53886358  0.12642054    -0.35100
N187        N  0.83345836  0.53609045  0.10199845    -0.27300
C188        C  0.85201342  0.53307495  0.07890791    -0.02500
C189        C  0.88320122  0.53378789  0.08933214     0.06100
C190        C  0.88178177  0.53734846  0.11956964     0.04200
H191        H  0.84373291  0.53114840  0.05620985     0.09300
H192        H  0.90150342  0.53904318  0.13546219     0.08100
N193        N  0.55506884  0.33536426  0.09483929    -0.26300
N194        N  0.55301344  0.34899095  0.12060105    -0.34100
C195        C  0.55133395  0.37941610  0.11615152     0.02100
C196        C  0.55171969  0.38514933  0.08612759     0.08100
C197        C  0.55428937  0.35667400  0.07334000    -0.05000
H198        H  0.54834472  0.39531585  0.13354701     0.08700
H199        H  0.55356062  0.35073101  0.05009765     0.09900
Cu200      Cu  0.54594410  0.32273194  0.16059310     0.44200
Cu201      Cu  0.55370339  0.28563159  0.08992224     0.42000
Cu202      Cu  0.51209155  0.22699413  0.15277385     0.43900
N203        N  0.53024687  0.28752359  0.19621524    -0.33700
N204        N  0.51722486  0.25214941  0.19331475    -0.27900
C205        C  0.50958423  0.23684040  0.22019017    -0.04000
C206        C  0.51799659  0.26388516  0.24099631     0.08200
C207        C  0.53099077  0.29564195  0.22497923     0.02000
H208        H  0.49888330  0.20821715  0.22424602     0.09600
H209        H  0.54042905  0.32274385  0.23358318     0.08700
N210        N  0.51986981  0.20894941  0.11217687    -0.35100
N211        N  0.53915898  0.23076164  0.09051988    -0.27300
C212        C  0.54388696  0.21090769  0.06946871    -0.02500
C213        C  0.52558344  0.17431093  0.07767288     0.06100
C214        C  0.51033933  0.17464143  0.10488507     0.04200
H215        H  0.55993609  0.22267281  0.04983398     0.09300
H216        H  0.49309133  0.15171969  0.11868187     0.08100
N217        N  0.73137520  0.21009701  0.09292449    -0.26300
N218        N  0.72528352  0.18559691  0.11325252    -0.34100
C219        C  0.69648819  0.15359822  0.10515729     0.02100
C220        C  0.68244889  0.15794965  0.07885291     0.08100
C221        C  0.70558577  0.19445499  0.07194648    -0.05000
H222        H  0.68669348  0.12899656  0.11777440     0.08700
H223        H  0.70369467  0.20897158  0.05324828     0.09900
Cu224      Cu  0.75256757  0.19719129  0.15335717     0.44200
Cu225      Cu  0.77662205  0.26288714  0.09338035     0.42000
Cu226      Cu  0.83320516  0.28412388  0.15817306     0.43900
N227        N  0.77868558  0.21972804  0.19310836    -0.33700
N228        N  0.80865360  0.25192194  0.19463091    -0.27900
C229        C  0.81735597  0.26105696  0.22303492    -0.04000
C230        C  0.79149606  0.23339447  0.24035554     0.08200
C231        C  0.76739458  0.20753096  0.22064640     0.02000
H232        H  0.83978937  0.28678927  0.23048509     0.09600
H233        H  0.74257134  0.18253274  0.22591259     0.08700
N234        N  0.84966311  0.31548160  0.12046530    -0.35100
N235        N  0.82861721  0.30911825  0.09722805    -0.27300
C236        C  0.84729846  0.33538176  0.07722190    -0.02500
C237        C  0.88192710  0.35927691  0.08829897     0.06100
C238        C  0.88223805  0.34543573  0.11575679     0.04200
H239        H  0.83653752  0.33682234  0.05608535     0.09300
H240        H  0.90468292  0.35596805  0.13111974     0.08100
C241        C  0.99881883  0.52054382  0.02904384     0.03300
C242        C  0.99990033  0.48762400  0.03063456     0.03200
C243        C  0.02922528  0.48584697  0.01731525    -0.17300
C244        C  0.05721322  0.51556351  0.00214837     0.03300
C245        C  0.05629379  0.54850536  0.00080937     0.03200
C246        C  0.02716194  0.55035958  0.01420680    -0.17300
H247        H  0.02649732  0.57550732  0.01297969     0.05300
H248        H  0.03000455  0.46075274  0.01843704     0.05300
N249        N  0.52599346  0.72187794  0.92336358    -0.26300
N250        N  0.52924400  0.70643574  0.89907437    -0.34100
C251        C  0.52955371  0.67591142  0.90625177     0.02100
C252        C  0.52744239  0.67232449  0.93670073     0.08100
C253        C  0.52524635  0.70219392  0.94667113    -0.05000
H254        H  0.53197855  0.65811166  0.89036936     0.08700
H255        H  0.52451726  0.70991765  0.96929591     0.09900
Cu256      Cu  0.53857433  0.73067830  0.85791698     0.44200
Cu257      Cu  0.52442197  0.76993499  0.92363148     0.42000
Cu258      Cu  0.56170146  0.82564560  0.85879353     0.43900
N259        N  0.55302529  0.76314816  0.82058997    -0.33700
N260        N  0.56171390  0.79772819  0.82086682    -0.27900
C261        C  0.56726158  0.80997797  0.79298382    -0.04000
C262        C  0.56198979  0.78183329  0.77431016     0.08200
C263        C  0.55319219  0.75264844  0.79259694     0.02000
H264        H  0.57347466  0.83699850  0.78673556     0.09600
H265        H  0.54601409  0.72533079  0.78599079     0.08700
N266        N  0.54794091  0.84312511  0.89725227    -0.35100
N267        N  0.53083213  0.82141315  0.91958578    -0.27300
C268        C  0.52122941  0.83911167  0.93915485    -0.02500
C269        C  0.53382694  0.87435592  0.92928010     0.06100
C270        C  0.55094377  0.87570323  0.90261489     0.04200
H271        H  0.50585969  0.82681818  0.95897188     0.09300
H272        H  0.56479024  0.89865503  0.88801446     0.08100
N273        N  0.32761244  0.51096926  0.92815928    -0.26300
N274        N  0.33334883  0.49336863  0.90653221    -0.34100
C275        C  0.36280987  0.49047536  0.91286180     0.02100
C276        C  0.37698579  0.50764402  0.93954891     0.08100
C277        C  0.35395138  0.52052349  0.94843257    -0.05000
H278        H  0.37275943  0.47632931  0.89908604     0.08700
H279        H  0.35585252  0.53547768  0.96836520     0.09900
Cu280      Cu  0.30321825  0.47615948  0.86812837     0.44200
Cu281      Cu  0.28202579  0.51762708  0.93127115     0.42000
Cu282      Cu  0.22096673  0.48011058  0.86948269     0.43900
N283        N  0.27376039  0.47108469  0.83046640    -0.33700
N284        N  0.24334534  0.47275997  0.83094889    -0.27900
C285        C  0.23251852  0.47242977  0.80311443    -0.04000
C286        C  0.25746048  0.47062241  0.78422813     0.08200
C287        C  0.28320562  0.46972276  0.80233742     0.02000
H288        H  0.20915382  0.47493493  0.79710099     0.09600
H289        H  0.30780395  0.46960721  0.79559568     0.08700
N290        N  0.20691932  0.49536312  0.90883789    -0.35100
N291        N  0.22974883  0.51117367  0.93093744    -0.27300
C292        C  0.21264877  0.51956648  0.95216775    -0.02500
C293        C  0.17707052  0.50811139  0.94312172     0.06100
C294        C  0.17463529  0.49266151  0.91558395     0.04200
H295        H  0.22533521  0.53316931  0.97254398     0.09300
H296        H  0.15101548  0.48017078  0.90139827     0.08100
N297        N  0.31301745  0.82171973  0.91830648    -0.26300
N298        N  0.31742525  0.84372463  0.89636403    -0.34100
C299        C  0.34548134  0.87696439  0.90283371     0.02100
C300        C  0.36093267  0.87580817  0.92962265     0.08100
C301        C  0.33924466  0.83982271  0.93846409    -0.05000
H302        H  0.35375817  0.90017501  0.88876842     0.08700
H303        H  0.34232766  0.82703244  0.95774293     0.09900
Cu304      Cu  0.28889755  0.82601695  0.85652731     0.44200
Cu305      Cu  0.26923124  0.76924960  0.92156933     0.42000
Cu306      Cu  0.21655065  0.73162632  0.85583155     0.43900
N307        N  0.26165976  0.79807140  0.81815472    -0.33700
N308        N  0.23513495  0.76369438  0.81831784    -0.27900
C309        C  0.22339858  0.75307624  0.79062668    -0.04000
C310        C  0.24359675  0.78190633  0.77189075     0.08200
C311        C  0.26773492  0.81002618  0.79009383     0.02000
H312        H  0.20212366  0.72602622  0.78454599     0.09600
H313        H  0.28835716  0.83707675  0.78341763     0.08700
N314        N  0.20146933  0.70585160  0.89641852    -0.35100
N315        N  0.22013408  0.72053411  0.92074930    -0.27300
C316        C  0.20174922  0.69935269  0.94371651    -0.02500
C317        C  0.17014023  0.66925417  0.93342569     0.06100
C318        C  0.17114848  0.67436584  0.90318013     0.04200
H319        H  0.21037770  0.70602180  0.96634428     0.09300
H320        H  0.15112081  0.65678729  0.88722130     0.08100
C321        C  0.52047670  0.05040222  0.01558741     0.03300
C322        C  0.55326058  0.04893150  0.01513385     0.03200
C323        C  0.55421121  0.02039207  0.00018400    -0.17300
C324        C  0.52306414  0.99294236  0.98603535     0.03300
C325        C  0.49012442  0.99417407  0.98674928     0.03200
C326        C  0.48928985  0.02303078  0.00137305    -0.17300
H327        H  0.46413324  0.02403966  0.00189984     0.05300
H328        H  0.57928275  0.01920870  0.99995662     0.05300
C329        C  0.56533576  0.53771546  0.03658250     0.03300
C330        C  0.53627164  0.50136737  0.03257849     0.03200
C331        C  0.50559255  0.49496747  0.01605839    -0.17300
C332        C  0.50364245  0.52362466  0.00269064     0.03300
C333        C  0.53318969  0.55960643  0.00553833     0.03200
C334        C  0.56320037  0.56631970  0.02305572    -0.17300
H335        H  0.58527665  0.59406660  0.02586660     0.05300
H336        H  0.48321566  0.46735828  0.01321290     0.05300
C337        C  0.39385215  0.90631546  0.94495197    -0.04300
C338        C  0.42085391  0.93627544  0.92859020    -0.01500
C339        C  0.44884705  0.96686066  0.94310831     0.03500
C340        C  0.45592726  0.96490002  0.97296761    -0.04300
C341        C  0.43056857  0.93482612  0.98953055    -0.01400
C342        C  0.39861772  0.90673115  0.97606937     0.03500
C343        C  0.42274175  0.93497793  0.89679470     0.38200
C344        C  0.43674395  0.93359786  0.02077585     0.38200
C345        C  0.37081345  0.87935659  0.99490387     0.36600
C346        C  0.46851427  0.00119447  0.92775817     0.36600
N347        N  0.34906670  0.85793061  0.01051446    -0.38200
N348        N  0.48322540  0.02882216  0.91570233    -0.38200
N349        N  0.44167805  0.93270662  0.04569628    -0.37700
N350        N  0.42508170  0.93397843  0.87145021    -0.37700
C351        C  0.40894090  0.51011279  0.95566408    -0.04300
C352        C  0.40759844  0.50564947  0.98662699    -0.01500
C353        C  0.43820790  0.50917304  0.00185140     0.03500
C354        C  0.46995394  0.51573099  0.98632816    -0.04300
C355        C  0.47005597  0.51660983  0.95535492    -0.01400
C356        C  0.44065270  0.51579473  0.94016374     0.03500
C357        C  0.37452753  0.49641111  0.00308770     0.38200
C358        C  0.49939364  0.51619882  0.93892683     0.38200
C359        C  0.44421838  0.52252627  0.90873594     0.36600
C360        C  0.43691664  0.50616983  0.03364989     0.36600
N361        N  0.44746645  0.52810185  0.88369283    -0.38200
N362        N  0.43543155  0.50408093  0.05903791    -0.38200
N363        N  0.52191157  0.51474056  0.92533648    -0.37700
N364        N  0.34829950  0.48904873  0.01644113    -0.37700
C365        C  0.53016797  0.90429497  0.94405522    -0.04300
C366        C  0.52813869  0.93117694  0.92707922    -0.01500
C367        C  0.52937457  0.96162044  0.94088637     0.03500
C368        C  0.52541920  0.96241456  0.97161820    -0.04300
C369        C  0.52572677  0.93505775  0.98878795    -0.01400
C370        C  0.53010582  0.90732936  0.97526641     0.03500
C371        C  0.52310442  0.92731563  0.89545854     0.38200
C372        C  0.52311499  0.93633704  0.02058899     0.38200
C373        C  0.53668065  0.88360519  0.99387042     0.36600
C374        C  0.53871994  0.99366312  0.92362813     0.36600
N375        N  0.54221464  0.86508019  0.00899604    -0.38200
N376        N  0.54767091  0.01946060  0.90967051    -0.38200
N377        N  0.52110541  0.93731116  0.04595481    -0.37700
N378        N  0.51864078  0.92435048  0.87025775    -0.37700
C379        C  0.52978416  0.64420610  0.95491862    -0.04300
C380        C  0.55385580  0.63133010  0.94682927    -0.01500
C381        C  0.55499094  0.60392983  0.96340985     0.03500
C382        C  0.53374850  0.59038644  0.98923797    -0.04300
C383        C  0.51198009  0.60517354  0.99864665    -0.01400
C384        C  0.50857560  0.63052996  0.98094363     0.03500
C385        C  0.57846657  0.64669707  0.92190417     0.38200
C386        C  0.49417053  0.59547485  0.02716486     0.38200
C387        C  0.48180283  0.64098413  0.98907907     0.36600
C388        C  0.57752419  0.58912222  0.95320252     0.36600
N389        N  0.46020090  0.64898558  0.99563602    -0.38200
N390        N  0.59508667  0.57729228  0.94406424    -0.38200
N391        N  0.48045259  0.58871395  0.05014670    -0.37700
N392        N  0.59823945  0.65869845  0.90208011    -0.37700
C393        C  0.08519781  0.58130724  0.98492936    -0.04300
C394        C  0.07586890  0.59571570  0.96067544    -0.01500
C395        C  0.10334255  0.62502802  0.94450167     0.03500
C396        C  0.14079566  0.63907822  0.95126403    -0.04300
C397        C  0.14993155  0.62483432  0.97583327    -0.01400
C398        C  0.12221247  0.59774577  0.99347220     0.03500
C399        C  0.03788191  0.58020013  0.95203948     0.38200
C400        C  0.18782594  0.63680522  0.98262989     0.38200
C401        C  0.13181072  0.58841265  0.02135373     0.36600
C402        C  0.09252042  0.64143532  0.92169588     0.36600
N403        N  0.13993419  0.58192435  0.04381118    -0.38200
N404        N  0.08352082  0.65441738  0.90367501    -0.38200
N405        N  0.21798368  0.64610029  0.98811748    -0.37700
N406        N  0.00760425  0.56776426  0.94514371    -0.37700
C407        C  0.14720571  0.51095319  0.95892272    -0.04300
C408        C  0.14087401  0.50394618  0.98950811    -0.01500
C409        C  0.11114391  0.50463100  0.00354991     0.03500
C410        C  0.08682452  0.51144446  0.98714173    -0.04300
C411        C  0.09187411  0.51606755  0.95641933    -0.01400
C412        C  0.12310139  0.51844131  0.94284221     0.03500
C413        C  0.16443811  0.49552737  0.00675908     0.38200
C414        C  0.06379721  0.51612486  0.93827477     0.38200
C415        C  0.13132033  0.53084194  0.91262454     0.36600
C416        C  0.10568494  0.49835220  0.03499733     0.36600
N417        N  0.13801612  0.54119250  0.88864807    -0.38200
N418        N  0.10135388  0.49336414  0.06007772    -0.38200
N419        N  0.04134296  0.51537477  0.92334266    -0.37700
N420        N  0.18316596  0.48894963  0.02078575    -0.37700
C421        C  0.64943280  0.12973643  0.06218401    -0.04300
C422        C  0.61955514  0.10071950  0.07722299    -0.01500
C423        C  0.59035815  0.07272548  0.06134240     0.03500
C424        C  0.58674052  0.07641352  0.03100981    -0.04300
C425        C  0.61554358  0.10554579  0.01580915    -0.01400
C426        C  0.64760383  0.13077266  0.03096219     0.03500
C427        C  0.61714808  0.09985714  0.10906899     0.38200
C428        C  0.61263686  0.10889291  0.98433426     0.38200
C429        C  0.67918739  0.15604027  0.01388573     0.36600
C430        C  0.56559021  0.03888965  0.07594413     0.36600
N431        N  0.70435926  0.17573441  0.99996632    -0.38200
N432        N  0.54676648  0.01161849  0.08763694    -0.38200
N433        N  0.61032752  0.11165222  0.95923643    -0.37700
N434        N  0.61446152  0.09879680  0.13445686    -0.37700
C435        C  0.91268718  0.39198719  0.07369516    -0.04300
C436        C  0.92109273  0.39068446  0.04362172    -0.01500
C437        C  0.94935919  0.42178107  0.02966503     0.03500
C438        C  0.97061419  0.45433037  0.04575759    -0.04300
C439        C  0.96442183  0.45465132  0.07629140    -0.01400
C440        C  0.93477653  0.42435742  0.08993826     0.03500
C441        C  0.90209049  0.35686119  0.02716847     0.38200
C442        C  0.99008400  0.48520136  0.09411671     0.38200
C443        C  0.92682850  0.42721057  0.12063155     0.36600
C444        C  0.95668668  0.42013187  0.99859252     0.36600
N445        N  0.92069362  0.42973326  0.14513087    -0.38200
N446        N  0.96273038  0.41898223  0.97384770    -0.38200
N447        N  0.01089298  0.50911449  0.10855344    -0.37700
N448        N  0.88727034  0.32990628  0.01396648    -0.37700
C449        C  0.51855375  0.08073743  0.03071840    -0.04300
C450        C  0.51045909  0.07862188  0.06088777    -0.01500
C451        C  0.51610761  0.10981359  0.07653615     0.03500
C452        C  0.52278924  0.14179526  0.06124509    -0.04300
C453        C  0.52544181  0.14152503  0.02993796    -0.01400
C454        C  0.52526276  0.11196129  0.01510189     0.03500
C455        C  0.49353979  0.04362565  0.07542719     0.38200
C456        C  0.52634671  0.17028891  0.01236630     0.38200
C457        C  0.53013689  0.11274775  0.98342071     0.36600
C458        C  0.51696174  0.10860944  0.10836590     0.36600
N459        N  0.53373186  0.11303723  0.95813757    -0.38200
N460        N  0.51779450  0.10691649  0.13373757    -0.38200
N461        N  0.52672255  0.19277328  0.99787313    -0.37700
N462        N  0.47882827  0.01561502  0.08690570    -0.37700
C463        C  0.53803928  0.46945110  0.04462849    -0.04300
C464        C  0.56429258  0.46089076  0.03375838    -0.01500
C465        C  0.56872891  0.43337280  0.04710897     0.03500
C466        C  0.54619655  0.41329204  0.07104343    -0.04300
C467        C  0.51798518  0.42000081  0.08035184    -0.01400
C468        C  0.51385271  0.44774639  0.06714020     0.03500
C469        C  0.58598358  0.47966463  0.00810406     0.38200
C470        C  0.49220413  0.39763898  0.10294386     0.38200
C471        C  0.48474557  0.45397717  0.07714234     0.36600
C472        C  0.59721468  0.42652058  0.03651208     0.36600
N473        N  0.46133718  0.45835470  0.08566252    -0.38200
N474        N  0.61992462  0.42111162  0.02786689    -0.38200
N475        N  0.47151796  0.37992516  0.12092636    -0.37700
N476        N  0.60304243  0.49442086  0.98747684    -0.37700
C477        C  0.96898304  0.52518772  0.04311237    -0.04300
C478        C  0.97768590  0.55259724  0.06470091    -0.01500
C479        C  0.94980222  0.55675401  0.07829459     0.03500
C480        C  0.91261772  0.53199089  0.07217041    -0.04300
C481        C  0.90391036  0.50525987  0.05008511    -0.01400
C482        C  0.93201339  0.50322227  0.03459897     0.03500
C483        C  0.01539502  0.57652304  0.07333617     0.38200
C484        C  0.86602576  0.47874959  0.04400018     0.38200
C485        C  0.92279385  0.48011769  0.00875806     0.36600
C486        C  0.95961610  0.58752002  0.09778661     0.36600
N487        N  0.91481452  0.46209113  0.98782870    -0.38200
N488        N  0.96743280  0.61225144  0.11308581    -0.38200
N489        N  0.83580236  0.45739181  0.03935518    -0.37700
N490        N  0.04543231  0.59566760  0.08025864    -0.37700
C491        C  0.65826521  0.54835924  0.08475873    -0.04300
C492        C  0.62386115  0.53490872  0.09881101    -0.01500
C493        C  0.59479301  0.53541583  0.08409751     0.03500
C494        C  0.59848083  0.54587350  0.05429725    -0.04300
C495        C  0.63362961  0.56232382  0.04123008    -0.01400
C496        C  0.66340849  0.56403466  0.05653285     0.03500
C497        C  0.61760362  0.51944551  0.12805362     0.38200
C498        C  0.63994278  0.57840292  0.01228665     0.38200
C499        C  0.69968871  0.58340965  0.04351684     0.36600
C500        C  0.56194628  0.52756349  0.10026024     0.36600
N501        N  0.72856276  0.59912248  0.03310008    -0.38200
N502        N  0.53633919  0.52225769  0.11364386    -0.38200
N503        N  0.64653897  0.59237975  0.98957054    -0.37700
N504        N  0.61239946  0.50710520  0.15140536    -0.37700
C505        C  0.38320983  0.88131959  0.56168461    -0.04300
C506        C  0.38837071  0.87786677  0.53102767    -0.01500
C507        C  0.41850740  0.90608610  0.51576671     0.03500
C508        C  0.44260029  0.93885483  0.53025544    -0.04300
C509        C  0.43587040  0.94357234  0.55983593    -0.01400
C510        C  0.40862614  0.91427109  0.57602671     0.03500
C511        C  0.36254171  0.84611151  0.51446928     0.38200
C512        C  0.45546504  0.97928460  0.57339141     0.38200
C513        C  0.40884232  0.91817997  0.60777620     0.36600
C514        C  0.42378372  0.90221676  0.48464406     0.36600
N515        N  0.40963940  0.92184175  0.63308093    -0.38200
N516        N  0.42780804  0.89931727  0.45975412    -0.38200
N517        N  0.47004867  0.00763825  0.58454007    -0.37700
N518        N  0.34234093  0.82104451  0.50072051    -0.37700
C519        C  0.45762688  0.49984503  0.54063661    -0.04300
C520        C  0.44345299  0.47649716  0.56516391    -0.01500
C521        C  0.41272060  0.47302647  0.58049989     0.03500
C522        C  0.39593736  0.49313422  0.57168266    -0.04300
C523        C  0.40925927  0.51530260  0.54634613    -0.01400
C524        C  0.43930008  0.51779855  0.53049542     0.03500
C525        C  0.46034087  0.45571945  0.57461060     0.38200
C526        C  0.39274187  0.53630316  0.53671754     0.38200
C527        C  0.44999877  0.53716320  0.50278631     0.36600
C528        C  0.39755215  0.44741591  0.60460412     0.36600
N529        N  0.45791210  0.55212019  0.48044896    -0.38200
N530        N  0.38548186  0.42683956  0.62372980    -0.38200
N531        N  0.37969058  0.55310128  0.52884020    -0.37700
N532        N  0.47374357  0.43908653  0.58208326    -0.37700
C533        C  0.52030841  0.88840457  0.56614950    -0.04300
C534        C  0.51972441  0.88754063  0.53484076    -0.01500
C535        C  0.51494106  0.91332720  0.51884210     0.03500
C536        C  0.51479141  0.94264099  0.53349986    -0.04300
C537        C  0.52032356  0.94626481  0.56414118    -0.01400
C538        C  0.51962965  0.91787643  0.58060163     0.03500
C539        C  0.52604849  0.86160313  0.51864599     0.38200
C540        C  0.53011486  0.98052624  0.57848144     0.38200
C541        C  0.51637654  0.91872978  0.61233764     0.36600
C542        C  0.51136331  0.91029401  0.48708777     0.36600
N543        N  0.51332860  0.91955685  0.63762293    -0.38200
N544        N  0.50845156  0.90755446  0.46176335    -0.38200
N545        N  0.53934353  0.00817987  0.58998605    -0.37700
N546        N  0.53140115  0.84120475  0.50555155    -0.37700
C547        C  0.52382875  0.63002840  0.56884360    -0.04300
C548        C  0.53281388  0.63201905  0.53850228    -0.01500
C549        C  0.53382704  0.60270196  0.52435373     0.03500
C550        C  0.52727496  0.57168902  0.54053681    -0.04300
C551        C  0.52166998  0.57125298  0.57116181    -0.01400
C552        C  0.51714618  0.59867487  0.58475751     0.03500
C553        C  0.54189116  0.66435910  0.52169126     0.38200
C554        C  0.52314486  0.54396886  0.58916095     0.38200
C555        C  0.50344725  0.59313031  0.61474413     0.36600
C556        C  0.54196107  0.60466810  0.49311363     0.36600
N557        N  0.49207442  0.58824015  0.63853806    -0.38200
N558        N  0.54855644  0.60629277  0.46822074    -0.38200
N559        N  0.52534076  0.52305967  0.60391755    -0.37700
N560        N  0.54916691  0.68999904  0.50801038    -0.37700
C561        C  0.12920553  0.48147124  0.57706358    -0.04300
C562        C  0.09258820  0.46052081  0.58700012    -0.01500
C563        C  0.06415067  0.46211221  0.57221101     0.03500
C564        C  0.07185250  0.48397801  0.54693238    -0.04300
C565        C  0.10785707  0.50259836  0.53574760    -0.01400
C566        C  0.13662851  0.50284769  0.55144318     0.03500
C567        C  0.08367219  0.43614132  0.61178928     0.38200
C568        C  0.11498222  0.51913306  0.50687894     0.38200
C569        C  0.17393340  0.52626303  0.54152480     0.36600
C570        C  0.02680899  0.44059542  0.58277564     0.36600
N571        N  0.20359599  0.54520225  0.53351509    -0.38200
N572        N  0.99705220  0.42332150  0.59119561    -0.38200
N573        N  0.12092168  0.53153894  0.48353933    -0.37700
N574        N  0.07640162  0.41660846  0.63151907    -0.37700
C575        C  0.07058687  0.55409912  0.54451363    -0.04300
C576        C  0.07276851  0.55596955  0.57552126    -0.01500
C577        C  0.10150801  0.58649168  0.58972489     0.03500
C578        C  0.12665681  0.61724575  0.57326760    -0.04300
C579        C  0.12271317  0.61640403  0.54225820    -0.01400
C580        C  0.09516963  0.58492487  0.52799373     0.03500
C581        C  0.04400033  0.52758090  0.59305932     0.38200
C582        C  0.14614338  0.64827416  0.52484492     0.38200
C583        C  0.09205049  0.58448573  0.49619629     0.36600
C584        C  0.10572434  0.58524642  0.62127623     0.36600
N585        N  0.08965416  0.58420490  0.47082873    -0.38200
N586        N  0.10898590  0.58390007  0.64642593    -0.38200
N587        N  0.16479663  0.67365489  0.51088729    -0.37700
N588        N  0.02083705  0.50565069  0.60739469    -0.37700
C589        C  0.90065453  0.36309904  0.45655127    -0.04300
C590        C  0.93783533  0.37677667  0.44891519    -0.01500
C591        C  0.96579431  0.40561318  0.46517181     0.03500
C592        C  0.95690041  0.42182058  0.48869336    -0.04300
C593        C  0.92022462  0.40583674  0.49818592    -0.01400
C594        C  0.89212296  0.37715280  0.48189724     0.03500
C595        C  0.94765336  0.36105851  0.42450760     0.38200
C596        C  0.91152452  0.41772838  0.52553143     0.38200
C597        C  0.85440598  0.36334028  0.49078716     0.36600
C598        C  0.00379823  0.41903490  0.45729841     0.36600
N599        N  0.82439690  0.35245649  0.49806811    -0.38200
N600        N  0.03411528  0.42976088  0.45109893    -0.38200
N601        N  0.90423829  0.42640206  0.54760250    -0.37700
N602        N  0.95567951  0.34876992  0.40497529    -0.37700
C603        C  0.63303498  0.11191176  0.44378714    -0.04300
C604        C  0.61649967  0.11966888  0.46788429    -0.01500
C605        C  0.58665160  0.09122628  0.48292739     0.03500
C606        C  0.57115366  0.05503774  0.47275612    -0.04300
C607        C  0.58824315  0.04706933  0.44926770    -0.01400
C608        C  0.61906270  0.07526513  0.43497257     0.03500
C609        C  0.62909960  0.15698962  0.47666723     0.38200
C610        C  0.57398891  0.00977889  0.43948464     0.38200
C611        C  0.63692910  0.06614096  0.41174643     0.36600
C612        C  0.57320301  0.09891866  0.50992532     0.36600
N613        N  0.65107609  0.05871199  0.39324482    -0.38200
N614        N  0.56294797  0.10493654  0.53177705    -0.38200
N615        N  0.56273361  0.98019848  0.43132799    -0.37700
N616        N  0.63885517  0.18672241  0.48365452    -0.37700
C617        C  0.90240620  0.50135278  0.45511130    -0.04300
C618        C  0.92328063  0.48894359  0.43953314    -0.01500
C619        C  0.95151965  0.48641539  0.45374860     0.03500
C620        C  0.95683730  0.49263066  0.48439277    -0.04300
C621        C  0.93478301  0.50331516  0.50028411    -0.01400
C622        C  0.90848031  0.50862561  0.48564873     0.03500
C623        C  0.91527908  0.47780106  0.40893092     0.38200
C624        C  0.93939490  0.50928907  0.53185759     0.38200
C625        C  0.88911026  0.52329869  0.50205380     0.36600
C626        C  0.97643295  0.47984378  0.43616213     0.36600
N627        N  0.87389244  0.53512083  0.51532069    -0.38200
N628        N  0.99605797  0.47512963  0.42128644    -0.38200
N629        N  0.94305773  0.51392124  0.55702820    -0.37700
N630        N  0.90886098  0.46866302  0.38458957    -0.37700
C631        C  0.58777358  0.51573230  0.48223516    -0.04300
C632        C  0.58900402  0.51277777  0.45135491    -0.01500
C633        C  0.61918805  0.51304581  0.43764739     0.03500
C634        C  0.65065016  0.52095560  0.45420758    -0.04300
C635        C  0.65050050  0.52685959  0.48494324    -0.01400
C636        C  0.61879377  0.52300650  0.49896560     0.03500
C637        C  0.56063155  0.51236204  0.43330138     0.38200
C638        C  0.68345069  0.53888744  0.50211080     0.38200
C639        C  0.61830025  0.52705892  0.53067390     0.36600
C640        C  0.61702588  0.50403436  0.40657710     0.36600
N641        N  0.61779150  0.53021225  0.55596516    -0.38200
N642        N  0.61500636  0.49661867  0.38183102    -0.38200
N643        N  0.70975734  0.54885771  0.51587291    -0.37700
N644        N  0.53893658  0.51312393  0.41837529    -0.37700
C645        C  0.49616960  0.11269719  0.44342046    -0.04300
C646        C  0.48389022  0.10244645  0.47278053    -0.01500
C647        C  0.48624685  0.07377426  0.48636731     0.03500
C648        C  0.49850287  0.05309289  0.47029282    -0.04300
C649        C  0.50737798  0.06119968  0.44023273    -0.01400
C650        C  0.50890058  0.09223014  0.42760274     0.03500
C651        C  0.46788864  0.12061688  0.48911742     0.38200
C652        C  0.51245197  0.03632762  0.42145204     0.38200
C653        C  0.52570578  0.10396172  0.39884288     0.36600
C654        C  0.47606404  0.06587628  0.51709940     0.36600
N655        N  0.53950558  0.11345986  0.37603616    -0.38200
N656        N  0.46773756  0.05995040  0.54160788    -0.38200
N657        N  0.51566007  0.01654959  0.40569326    -0.37700
N658        N  0.45503418  0.13490236  0.50231553    -0.37700
C659        C  0.52002031  0.38590146  0.45425563    -0.04300
C660        C  0.49892437  0.40060424  0.44301012    -0.01500
C661        C  0.49812181  0.42957628  0.45773329     0.03500
C662        C  0.51848203  0.44429177  0.48371412    -0.04300
C663        C  0.53647495  0.42738285  0.49650424    -0.01400
C664        C  0.53833975  0.39915553  0.48142173     0.03500
C665        C  0.47714864  0.38547236  0.41666070     0.38200
C666        C  0.55105333  0.43751863  0.52603741     0.38200
C667        C  0.56046585  0.38502429  0.49343598     0.36600
C668        C  0.47589680  0.44396758  0.44632622     0.36600
N669        N  0.57835747  0.37405280  0.50309555    -0.38200
N670        N  0.45810101  0.45541670  0.43734212    -0.38200
N671        N  0.56181577  0.44485890  0.54989543    -0.37700
N672        N  0.45979998  0.37352429  0.39561308    -0.37700
loop_ 
_geom_bond_atom_site_label_1 
_geom_bond_atom_site_label_2 
_geom_bond_distance 
_geom_bond_site_symmetry_2 
_ccdc_geom_bond_type 
N1            N2   1.321       .  A
N1            C5   1.347       .  A
N1           Cu9   2.080       .  S
N2            C3   1.344       .  A
N2           Cu8   2.072       .  S
C3            C4   1.386       .  A
C3            H6   1.082       .  S
C4            C5   1.388       .  A
C4          C659   1.494       .  S
C5            H7   1.082       .  S
Cu8          N11   2.073       .  S
Cu9          N19   2.081       .  S
Cu10         N12   2.091       .  S
Cu10         N18   2.091       .  S
N11          N12   1.323       .  A
N11          C15   1.345       .  A
N12          C13   1.349       .  A
C13          C14   1.387       .  A
C13          H16   1.083       .  S
C14          C15   1.382       .  A
C14         C206   1.477       .  S
C15          H17   1.081       .  S
N18          N19   1.322       .  A
N18          C22   1.346       .  A
N19          C20   1.346       .  A
C20          C21   1.390       .  A
C20          H23   1.081       .  S
C21          C22   1.392       .  A
C21         C645   1.507       .  S
C22          H24   1.081       .  S
N25          N26   1.321       .  A
N25          C29   1.346       .  A
N25         Cu33   2.075       .  S
N26          C27   1.343       .  A
N26         Cu32   2.072       .  S
C27          C28   1.387       .  A
C27          H30   1.080       .  S
C28          C29   1.389       .  A
C28         C634   1.496       .  S
C29          H31   1.081       .  S
Cu32         N35   2.071       .  S
Cu33         N43   2.075       .  S
Cu34         N36   2.073       .  S
Cu34         N42   2.074       .  S
N35          N36   1.321       .  A
N35          C39   1.344       .  A
N36          C37   1.346       .  A
C37          C38   1.384       .  A
C37          H40   1.083       .  S
C38          C39   1.383       .  A
C38         C182   1.472       .  S
C39          H41   1.081       .  S
N42          N43   1.322       .  A
N42          C46   1.343       .  A
N43          C44   1.345       .  A
C44          C45   1.387       .  A
C44          H47   1.082       .  S
C45          C46   1.386       .  A
C45         C617   1.494       .  S
C46          H48   1.082       .  S
N49          N50   1.321       .  A
N49          C53   1.345       .  A
N49         Cu57   2.072       .  S
N50          C51   1.346       .  A
N50         Cu56   2.080       .  S
C51          C52   1.388       .  A
C51          H54   1.082       .  S
C52          C53   1.386       .  A
C52         C603   1.495       .  S
C53          H55   1.082       .  S
Cu56         N59   2.080       .  S
Cu57         N67   2.072       .  S
Cu58         N60   2.084       .  S
Cu58         N66   2.084       .  S
N59          N60   1.323       .  A
N59          C63   1.347       .  A
N60          C61   1.346       .  A
C61          C62   1.385       .  A
C61          H64   1.082       .  S
C62          C63   1.384       .  A
C62         C230   1.476       .  S
C63          H65   1.081       .  S
N66          N67   1.322       .  A
N66          C70   1.346       .  A
N67          C68   1.344       .  A
C68          C69   1.385       .  A
C68          H71   1.082       .  S
C69          C70   1.389       .  A
C69         C589   1.495       .  S
C70          H72   1.082       .  S
C73          C74   1.419       .  A
C73          C78   1.407   1_655  A
C73         C620   1.497       .  S
C74          C75   1.402   1_655  A
C74         C592   1.496       .  S
C75          C76   1.404       .  A
C75          H80   1.084       .  S
C76          C77   1.419       .  A
C76         C564   1.492       .  S
C77          C78   1.403       .  A
C77         C575   1.502       .  S
C78          H79   1.084       .  S
N81          N82   1.320       .  A
N81          C85   1.349       .  A
N81         Cu89   2.088       .  S
N82          C83   1.342       .  A
N82         Cu88   2.069       .  S
C83          C84   1.387       .  A
C83          H86   1.079       .  S
C84          C85   1.393       .  A
C84         C547   1.501       .  S
C85          H87   1.080       .  S
Cu88         N91   2.070       .  S
Cu89         N99   2.088       .  S
Cu90         N92   2.086       .  S
Cu90         N98   2.087       .  S
N91          N92   1.321       .  A
N91          C95   1.345       .  A
N92          C93   1.348       .  A
C93          C94   1.387       .  A
C93          H96   1.082       .  S
C94          C95   1.384       .  A
C94         C262   1.476       .  S
C95          H97   1.081       .  S
N98          N99   1.322       .  A
N98         C102   1.346       .  A
N99         C100   1.345       .  A
C100        C101   1.392       .  A
C100        H103   1.080       .  S
C101        C102   1.393       .  A
C101        C533   1.509       .  S
C102        H104   1.080       .  S
N105        N106   1.322       .  A
N105        C109   1.345       .  A
N105       Cu113   2.074       .  S
N106        C107   1.345       .  A
N106       Cu112   2.080       .  S
C107        C108   1.387       .  A
C107        H110   1.083       .  S
C108        C109   1.386       .  A
C108        C522   1.493       .  S
C109        H111   1.082       .  S
Cu112       N115   2.080       .  S
Cu113       N123   2.073       .  S
Cu114       N116   2.073       .  S
Cu114       N122   2.072       .  S
N115        N116   1.322       .  A
N115        C119   1.347       .  A
N116        C117   1.345       .  A
C117        C118   1.383       .  A
C117        H120   1.083       .  S
C118        C119   1.385       .  A
C118        C286   1.474       .  S
C119        H121   1.081       .  S
N122        N123   1.321       .  A
N122        C126   1.344       .  A
N123        C124   1.344       .  A
C124        C125   1.386       .  A
C124        H127   1.082       .  S
C125        C126   1.386       .  A
C125        C561   1.492       .  S
C126        H128   1.081       .  S
N129        N130   1.320       .  A
N129        C133   1.349       .  A
N129       Cu137   2.094       .  S
N130        C131   1.340       .  A
N130       Cu136   2.081       .  S
C131        C132   1.392       .  A
C131        H134   1.087       .  S
C132        C133   1.397       .  A
C132        C505   1.515       .  S
C133        H135   1.084       .  S
Cu136       N139   2.082       .  S
Cu137       N147   2.095       .  S
Cu138       N140   2.078       .  S
Cu138       N146   2.078       .  S
N139        N140   1.321       .  A
N139        C143   1.350       .  A
N140        C141   1.345       .  A
C141        C142   1.386       .  A
C141        H144   1.082       .  S
C142        C143   1.388       .  A
C142        C310   1.481       .  S
C143        H145   1.082       .  S
N146        N147   1.323       .  A
N146        C150   1.345       .  A
N147        C148   1.348       .  A
C148        C149   1.391       .  A
C148        H151   1.082       .  S
C149        C150   1.388       .  A
C149        C578   1.502       .  S
C150        H152   1.083       .  S
C153        C154   1.425       .  A
C153        C158   1.411   1_545  A
C153        C648   1.510       .  S
C154        C155   1.407   1_545  A
C154        C606   1.498       .  S
C155        C156   1.401       .  A
C155        H160   1.084       .  S
C156        C157   1.415       .  A
C156        C536   1.497       .  S
C157        C158   1.407       .  A
C157        C508   1.496       .  S
C158        H159   1.084       .  S
C161        C162   1.416       .  A
C161        C166   1.405       .  A
C161        C631   1.495       .  S
C162        C163   1.399       .  A
C162        C662   1.492       .  S
C163        C164   1.402       .  A
C163        H168   1.084       .  S
C164        C165   1.420       .  A
C164        C519   1.495       .  S
C165        C166   1.405       .  A
C165        C550   1.498       .  S
C166        H167   1.084       .  S
N169        N170   1.321       .  A
N169        C173   1.345       .  A
N169       Cu177   2.083       .  S
N170        C171   1.344       .  A
N170       Cu176   2.067       .  S
C171        C172   1.385       .  A
C171        H174   1.082       .  S
C172        C173   1.389       .  A
C172        C491   1.495       .  S
C173        H175   1.083       .  S
Cu176       N179   2.068       .  S
Cu177       N187   2.083       .  S
Cu178       N180   2.078       .  S
Cu178       N186   2.078       .  S
N179        N180   1.322       .  A
N179        C183   1.344       .  A
N180        C181   1.347       .  A
C181        C182   1.385       .  A
C181        H184   1.080       .  S
C182        C183   1.382       .  A
C183        H185   1.083       .  S
N186        N187   1.322       .  A
N186        C190   1.344       .  A
N187        C188   1.348       .  A
C188        C189   1.388       .  A
C188        H191   1.081       .  S
C189        C190   1.385       .  A
C189        C480   1.495       .  S
C190        H192   1.081       .  S
N193        N194   1.323       .  A
N193        C197   1.349       .  A
N193       Cu201   2.093       .  S
N194        C195   1.345       .  A
N194       Cu200   2.080       .  S
C195        C196   1.386       .  A
C195        H198   1.082       .  S
C196        C197   1.389       .  A
C196        C466   1.498       .  S
C197        H199   1.081       .  S
Cu200       N203   2.080       .  S
Cu201       N211   2.092       .  S
Cu202       N204   2.079       .  S
Cu202       N210   2.078       .  S
N203        N204   1.322       .  A
N203        C207   1.346       .  A
N204        C205   1.348       .  A
C205        C206   1.385       .  A
C205        H208   1.081       .  S
C206        C207   1.385       .  A
C207        H209   1.083       .  S
N210        N211   1.319       .  A
N210        C214   1.342       .  A
N211        C212   1.348       .  A
C212        C213   1.398       .  A
C212        H215   1.080       .  S
C213        C214   1.393       .  A
C213        C452   1.516       .  S
C214        H216   1.080       .  S
N217        N218   1.321       .  A
N217        C221   1.348       .  A
N217       Cu225   2.096       .  S
N218        C219   1.344       .  A
N218       Cu224   2.083       .  S
C219        C220   1.392       .  A
C219        H222   1.080       .  S
C220        C221   1.395       .  A
C220        C421   1.511       .  S
C221        H223   1.080       .  S
Cu224       N227   2.083       .  S
Cu225       N235   2.097       .  S
Cu226       N228   2.070       .  S
Cu226       N234   2.071       .  S
N227        N228   1.321       .  A
N227        C231   1.348       .  A
N228        C229   1.345       .  A
C229        C230   1.383       .  A
C229        H232   1.082       .  S
C230        C231   1.387       .  A
C231        H233   1.082       .  S
N234        N235   1.322       .  A
N234        C238   1.344       .  A
N235        C236   1.349       .  A
C236        C237   1.393       .  A
C236        H239   1.081       .  S
C237        C238   1.386       .  A
C237        C435   1.502       .  S
C238        H240   1.080       .  S
C241        C242   1.423       .  A
C241        C246   1.406   1_655  A
C241        C477   1.506       .  S
C242        C243   1.409   1_655  A
C242        C438   1.502       .  S
C243        C244   1.406       .  A
C243        H248   1.084       .  S
C244        C245   1.420       .  A
C244        C410   1.504   1_554  S
C245        C246   1.405       .  A
C245        C393   1.502   1_554  S
C246        H247   1.084       .  S
N249        N250   1.320       .  A
N249        C253   1.345       .  A
N249       Cu257   2.074       .  S
N250        C251   1.345       .  A
N250       Cu256   2.081       .  S
C251        C252   1.391       .  A
C251        H254   1.081       .  S
C252        C253   1.389       .  A
C252        C379   1.502       .  S
C253        H255   1.082       .  S
Cu256       N259   2.082       .  S
Cu257       N267   2.073       .  S
Cu258       N260   2.084       .  S
Cu258       N266   2.083       .  S
N259        N260   1.323       .  A
N259        C263   1.346       .  A
N260        C261   1.348       .  A
C261        C262   1.385       .  A
C261        H264   1.081       .  S
C262        C263   1.384       .  A
C263        H265   1.082       .  S
N266        N267   1.320       .  A
N266        C270   1.344       .  A
N267        C268   1.345       .  A
C268        C269   1.391       .  A
C268        H271   1.080       .  S
C269        C270   1.393       .  A
C269        C365   1.507       .  S
C270        H272   1.080       .  S
N273        N274   1.322       .  A
N273        C277   1.344       .  A
N273       Cu281   2.084       .  S
N274        C275   1.343       .  A
N274       Cu280   2.069       .  S
C275        C276   1.386       .  A
C275        H278   1.082       .  S
C276        C277   1.389       .  A
C276        C351   1.496       .  S
C277        H279   1.082       .  S
Cu280       N283   2.069       .  S
Cu281       N291   2.084       .  S
Cu282       N284   2.078       .  S
Cu282       N290   2.078       .  S
N283        N284   1.321       .  A
N283        C287   1.346       .  A
N284        C285   1.346       .  A
C285        C286   1.385       .  A
C285        H288   1.081       .  S
C286        C287   1.384       .  A
C287        H289   1.083       .  S
N290        N291   1.321       .  A
N290        C294   1.343       .  A
N291        C292   1.349       .  A
C292        C293   1.392       .  A
C292        H295   1.080       .  S
C293        C294   1.388       .  A
C293        C407   1.502       .  S
C294        H296   1.080       .  S
N297        N298   1.319       .  A
N297        C301   1.345       .  A
N297       Cu305   2.071       .  S
N298        C299   1.345       .  A
N298       Cu304   2.097       .  S
C299        C300   1.398       .  A
C299        H302   1.079       .  S
C300        C301   1.393       .  A
C300        C337   1.515       .  S
C301        H303   1.077       .  S
Cu304       N307   2.098       .  S
Cu305       N315   2.072       .  S
Cu306       N308   2.080       .  S
Cu306       N314   2.080       .  S
N307        N308   1.323       .  A
N307        C311   1.351       .  A
N308        C309   1.345       .  A
C309        C310   1.383       .  A
C309        H312   1.081       .  S
C310        C311   1.389       .  A
C311        H313   1.083       .  S
N314        N315   1.320       .  A
N314        C318   1.346       .  A
N315        C316   1.344       .  A
C316        C317   1.388       .  A
C316        H319   1.081       .  S
C317        C318   1.390       .  A
C317        C396   1.500       .  S
C318        H320   1.080       .  S
C321        C322   1.416       .  A
C321        C326   1.404       .  A
C321        C449   1.492       .  S
C322        C323   1.402       .  A
C322        C424   1.494       .  S
C323        C324   1.403   1_544  A
C323        H328   1.084   1_554  S
C324        C325   1.418       .  A
C324        C368   1.494       .  S
C325        C326   1.405   1_566  A
C325        C340   1.493       .  S
C326        H327   1.084       .  S
C329        C330   1.424       .  A
C329        C334   1.408       .  A
C329        C494   1.501       .  S
C330        C331   1.405       .  A
C330        C463   1.502       .  S
C331        C332   1.403       .  A
C331        H336   1.084       .  S
C332        C333   1.415       .  A
C332        C354   1.491   1_554  S
C333        C334   1.404       .  A
C333        C382   1.497   1_554  S
C334        H335   1.084       .  S
C337        C338   1.423       .  A
C337        C342   1.429       .  A
C338        C339   1.408       .  A
C338        C343   1.449       .  S
C339        C340   1.404       .  A
C339        C346   1.449   1_565  S
C340        C341   1.408       .  A
C341        C342   1.417       .  A
C341        C344   1.452   1_556  S
C342        C345   1.449       .  S
C343        N350   1.158       .  T
C344        N349   1.157       .  T
C345        N347   1.158   1_556  T
C346        N348   1.157       .  T
C351        C352   1.418       .  A
C351        C356   1.419       .  A
C352        C353   1.410   1_556  A
C352        C357   1.451   1_556  S
C353        C354   1.410   1_554  A
C353        C360   1.450       .  S
C354        C355   1.408       .  A
C355        C356   1.410       .  A
C355        C358   1.449       .  S
C356        C359   1.451       .  S
C357        N364   1.157       .  T
C358        N363   1.157       .  T
C359        N361   1.158       .  T
C360        N362   1.157       .  T
C365        C366   1.420       .  A
C365        C370   1.423       .  A
C366        C367   1.409       .  A
C366        C371   1.450       .  S
C367        C368   1.408       .  A
C367        C374   1.448       .  S
C368        C369   1.410       .  A
C369        C370   1.415       .  A
C369        C372   1.451   1_556  S
C370        C373   1.450       .  S
C371        N378   1.158       .  T
C372        N377   1.157       .  T
C373        N375   1.158   1_556  T
C374        N376   1.157   1_565  T
C379        C380   1.419       .  A
C379        C384   1.419       .  A
C380        C381   1.412       .  A
C380        C385   1.451       .  S
C381        C382   1.412       .  A
C381        C388   1.450       .  S
C382        C383   1.410       .  A
C383        C384   1.413       .  A
C383        C386   1.449   1_556  S
C384        C387   1.450       .  S
C385        N392   1.158       .  T
C386        N391   1.157       .  T
C387        N389   1.157       .  T
C388        N390   1.157       .  T
C393        C394   1.415       .  A
C393        C398   1.412       .  A
C394        C395   1.412       .  A
C394        C399   1.452       .  S
C395        C396   1.418       .  A
C395        C402   1.451       .  S
C396        C397   1.418       .  A
C397        C398   1.411       .  A
C397        C400   1.451       .  S
C398        C401   1.450   1_556  S
C399        N406   1.157       .  T
C400        N405   1.158       .  T
C401        N403   1.157       .  T
C402        N404   1.157       .  T
C407        C408   1.419       .  A
C407        C412   1.417       .  A
C408        C409   1.417   1_556  A
C408        C413   1.450   1_556  S
C409        C410   1.416   1_554  A
C409        C416   1.451       .  S
C410        C411   1.411       .  A
C411        C412   1.409       .  A
C411        C414   1.450       .  S
C412        C415   1.451       .  S
C413        N420   1.158       .  T
C414        N419   1.157       .  T
C415        N417   1.157       .  T
C416        N418   1.157       .  T
C421        C422   1.423       .  A
C421        C426   1.424       .  A
C422        C423   1.410       .  A
C422        C427   1.450       .  S
C423        C424   1.407       .  A
C423        C430   1.450       .  S
C424        C425   1.409       .  A
C425        C426   1.416       .  A
C425        C428   1.451   1_554  S
C426        C429   1.449       .  S
C427        N434   1.158       .  T
C428        N433   1.157       .  T
C429        N431   1.158   1_554  T
C430        N432   1.157       .  T
C435        C436   1.417       .  A
C435        C440   1.420       .  A
C436        C437   1.414       .  A
C436        C441   1.451       .  S
C437        C438   1.415       .  A
C437        C444   1.452   1_554  S
C438        C439   1.411       .  A
C439        C440   1.414       .  A
C439        C442   1.450       .  S
C440        C443   1.451       .  S
C441        N448   1.157       .  T
C442        N447   1.157   1_655  T
C443        N445   1.157       .  T
C444        N446   1.157       .  T
C449        C450   1.403       .  A
C449        C454   1.406       .  A
C450        C451   1.410       .  A
C450        C455   1.450       .  S
C451        C452   1.427       .  A
C451        C458   1.449       .  S
C452        C453   1.427       .  A
C453        C454   1.416       .  A
C453        C456   1.449       .  S
C454        C457   1.451   1_554  S
C455        N462   1.157       .  T
C456        N461   1.158   1_554  T
C457        N459   1.157       .  T
C458        N460   1.158       .  T
C463        C464   1.413       .  A
C463        C468   1.414       .  A
C464        C465   1.414       .  A
C464        C469   1.450       .  S
C465        C466   1.416       .  A
C465        C472   1.450       .  S
C466        C467   1.417       .  A
C467        C468   1.413       .  A
C467        C470   1.452       .  S
C468        C471   1.450       .  S
C469        N476   1.157   1_554  T
C470        N475   1.157       .  T
C471        N473   1.157       .  T
C472        N474   1.157       .  T
C477        C478   1.418       .  A
C477        C482   1.416       .  A
C478        C479   1.412       .  A
C478        C483   1.452   1_655  S
C479        C480   1.414       .  A
C479        C486   1.452       .  S
C480        C481   1.414       .  A
C481        C482   1.414       .  A
C481        C484   1.451       .  S
C482        C485   1.449       .  S
C483        N490   1.157       .  T
C484        N489   1.157       .  T
C485        N487   1.157   1_554  T
C486        N488   1.157       .  T
C491        C492   1.417       .  A
C491        C496   1.415       .  A
C492        C493   1.411       .  A
C492        C497   1.450       .  S
C493        C494   1.412       .  A
C493        C500   1.450       .  S
C494        C495   1.415       .  A
C495        C496   1.411       .  A
C495        C498   1.447       .  S
C496        C499   1.452       .  S
C497        N504   1.157       .  T
C498        N503   1.156   1_554  T
C499        N501   1.157       .  T
C500        N502   1.157       .  T
C505        C506   1.426       .  A
C505        C510   1.424       .  A
C506        C507   1.419       .  A
C506        C511   1.449       .  S
C507        C508   1.409       .  A
C507        C514   1.451       .  S
C508        C509   1.405       .  A
C509        C510   1.409       .  A
C509        C512   1.450       .  S
C510        C513   1.451       .  S
C511        N518   1.158       .  T
C512        N517   1.157   1_565  T
C513        N515   1.158       .  T
C514        N516   1.157       .  T
C519        C520   1.414       .  A
C519        C524   1.411       .  A
C520        C521   1.410       .  A
C520        C525   1.452       .  S
C521        C522   1.416       .  A
C521        C528   1.451       .  S
C522        C523   1.417       .  A
C523        C524   1.412       .  A
C523        C526   1.451       .  S
C524        C527   1.450       .  S
C525        N532   1.157       .  T
C526        N531   1.157       .  T
C527        N529   1.157       .  T
C528        N530   1.157       .  T
C533        C534   1.423       .  A
C533        C538   1.421       .  A
C534        C535   1.415       .  A
C534        C539   1.450       .  S
C535        C536   1.409       .  A
C535        C542   1.450       .  S
C536        C537   1.408       .  A
C537        C538   1.411       .  A
C537        C540   1.449       .  S
C538        C541   1.450       .  S
C539        N546   1.158       .  T
C540        N545   1.157   1_565  T
C541        N543   1.158       .  T
C542        N544   1.157       .  T
C547        C548   1.419       .  A
C547        C552   1.418       .  A
C548        C549   1.416       .  A
C548        C553   1.450       .  S
C549        C550   1.414       .  A
C549        C556   1.451       .  S
C550        C551   1.409       .  A
C551        C552   1.408       .  A
C551        C554   1.450       .  S
C552        C555   1.451       .  S
C553        N560   1.158       .  T
C554        N559   1.157       .  T
C555        N557   1.157       .  T
C556        N558   1.157       .  T
C561        C562   1.417       .  A
C561        C566   1.416       .  A
C562        C563   1.411       .  A
C562        C567   1.451       .  S
C563        C564   1.413       .  A
C563        C570   1.452       .  S
C564        C565   1.410       .  A
C565        C566   1.408       .  A
C565        C568   1.450       .  S
C566        C569   1.451       .  S
C567        N574   1.157       .  T
C568        N573   1.157       .  T
C569        N571   1.157       .  T
C570        N572   1.157   1_455  T
C575        C576   1.412       .  A
C575        C580   1.415       .  A
C576        C577   1.412       .  A
C576        C581   1.450       .  S
C577        C578   1.418       .  A
C577        C584   1.451       .  S
C578        C579   1.418       .  A
C579        C580   1.415       .  A
C579        C582   1.451       .  S
C580        C583   1.451       .  S
C581        N588   1.157       .  T
C582        N587   1.157       .  T
C583        N585   1.157       .  T
C584        N586   1.157       .  T
C589        C590   1.416       .  A
C589        C594   1.418       .  A
C590        C591   1.411       .  A
C590        C595   1.451       .  S
C591        C592   1.413       .  A
C591        C598   1.452   1_655  S
C592        C593   1.411       .  A
C593        C594   1.412       .  A
C593        C596   1.450       .  S
C594        C597   1.451       .  S
C595        N602   1.157       .  T
C596        N601   1.157       .  T
C597        N599   1.157       .  T
C598        N600   1.157       .  T
C603        C604   1.417       .  A
C603        C608   1.416       .  A
C604        C605   1.412       .  A
C604        C609   1.450       .  S
C605        C606   1.411       .  A
C605        C612   1.450       .  S
C606        C607   1.415       .  A
C607        C608   1.412       .  A
C607        C610   1.451       .  S
C608        C611   1.451       .  S
C609        N616   1.157       .  T
C610        N615   1.157   1_545  T
C611        N613   1.157       .  T
C612        N614   1.157       .  T
C617        C618   1.416       .  A
C617        C622   1.416       .  A
C618        C619   1.411       .  A
C618        C623   1.452       .  S
C619        C620   1.414       .  A
C619        C626   1.449       .  S
C620        C621   1.415       .  A
C621        C622   1.410       .  A
C621        C624   1.452       .  S
C622        C625   1.451       .  S
C623        N630   1.157       .  T
C624        N629   1.157       .  T
C625        N627   1.157       .  T
C626        N628   1.157       .  T
C631        C632   1.411       .  A
C631        C636   1.412       .  A
C632        C633   1.409       .  A
C632        C637   1.449       .  S
C633        C634   1.417       .  A
C633        C640   1.451       .  S
C634        C635   1.418       .  A
C635        C636   1.413       .  A
C635        C638   1.450       .  S
C636        C639   1.451       .  S
C637        N644   1.157       .  T
C638        N643   1.157       .  T
C639        N641   1.157       .  T
C640        N642   1.158       .  T
C645        C646   1.419       .  A
C645        C650   1.418       .  A
C646        C647   1.417       .  A
C646        C651   1.451       .  S
C647        C648   1.418       .  A
C647        C654   1.450       .  S
C648        C649   1.413       .  A
C649        C650   1.413       .  A
C649        C652   1.448       .  S
C650        C653   1.451       .  S
C651        N658   1.158       .  T
C652        N657   1.157       .  T
C653        N655   1.157       .  T
C654        N656   1.157       .  T
C659        C660   1.418       .  A
C659        C664   1.416       .  A
C660        C661   1.410       .  A
C660        C665   1.451       .  S
C661        C662   1.410       .  A
C661        C668   1.451       .  S
C662        C663   1.410       .  A
C663        C664   1.411       .  A
C663        C666   1.450       .  S
C664        C667   1.450       .  S
C665        N672   1.157       .  T
C666        N671   1.157       .  T
C667        N669   1.157       .  T
C668        N670   1.157       .  T
