geometry optimzed in LAMMPS
_audit_creation_date              2020-12-01 
_audit_creation_method            'lammps2cif' 
_symmetry_space_group_name_H-M    'P1' 
_symmetry_Int_Tables_number       1 
_symmetry_cell_setting            triclinic 
loop_ 
_symmetry_equiv_pos_as_xyz 
  x,y,z 
_cell_length_a                    49.93443477 
_cell_length_b                    50.42114940038325 
_cell_length_c                    50.106531550875275 
_cell_angle_alpha                 90.08443484493348 
_cell_angle_beta                  90.00333415682204 
_cell_angle_gamma                 90.10528054044582 
loop_ 
_atom_site_label 
_atom_site_type_symbol 
_atom_site_fract_x 
_atom_site_fract_y 
_atom_site_fract_z 
_atom_site_charge 
O1          O  0.53362445  0.71084661  0.01376199    -0.74000
O2          O  0.48333130  0.65402251  0.00577964    -0.74100
O3          O  0.53730134  0.65780545  0.00890412    -0.74100
O4          O  0.47886732  0.70695217  0.01079508    -0.74200
O5          O  0.48157768  0.71198181  0.96663807    -0.74100
O6          O  0.53884485  0.66101006  0.96452673    -0.74100
O7          O  0.48464405  0.65898174  0.96152078    -0.74100
O8          O  0.53641367  0.71410916  0.96942208    -0.74100
Ni9        Ni  0.50820818  0.68237032  0.01140105     1.25400
Ni10       Ni  0.51046589  0.68677827  0.96395349     1.25400
C11         C  0.54419044  0.72091426  0.99278846     0.88100
C12         C  0.47547066  0.64748871  0.98234151     0.88100
C13         C  0.54773074  0.65135596  0.98647088     0.88100
C14         C  0.46985943  0.71663983  0.98893679     0.88300
C15         C  0.85982016  0.68639093  0.99865545    -0.02100
C16         C  0.71408187  0.83199051  0.00520095    -0.02100
O17         O  0.75216334  0.49993846  0.97245964    -0.74000
O18         O  0.69765731  0.44611231  0.96973684    -0.74100
O19         O  0.69815656  0.49984222  0.97024825    -0.74100
O20         O  0.75211098  0.44588697  0.97167641    -0.74200
O21         O  0.75073956  0.44575922  0.01601801    -0.74100
O22         O  0.69592166  0.49902611  0.01471712    -0.74100
O23         O  0.69639461  0.44538829  0.01420464    -0.74100
O24         O  0.75011880  0.49978617  0.01676850    -0.74100
Ni25       Ni  0.72515877  0.47290723  0.96945617     1.25400
Ni26       Ni  0.72332509  0.47243641  0.01700104     1.25400
C27         C  0.75964211  0.50934640  0.99504019     0.88100
C28         C  0.68761751  0.43732623  0.99157484     0.88100
C29         C  0.68802155  0.50813052  0.99218959     0.88100
C30         C  0.76028009  0.43670081  0.99408858     0.88300
C31         C  0.69596815  0.11866478  0.00761316    -0.02100
C32         C  0.84928749  0.25595252  0.00228558    -0.02100
O33         O  0.46817323  0.24680953  0.01540308    -0.74000
O34         O  0.52569284  0.29730171  0.01421370    -0.74100
O35         O  0.47131907  0.30023784  0.01289888    -0.74100
O36         O  0.52232667  0.24381901  0.01635938    -0.74200
O37         O  0.52237723  0.24121652  0.97210463    -0.74100
O38         O  0.47297625  0.29890422  0.96840872    -0.74100
O39         O  0.52737555  0.29448271  0.96981321    -0.74100
O40         O  0.46812196  0.24566117  0.97087623    -0.74100
Ni41       Ni  0.49685618  0.27214600  0.01629609     1.25400
Ni42       Ni  0.49775427  0.27001078  0.96870910     1.25400
C43         C  0.45849950  0.23818596  0.99336334     0.88100
C44         C  0.53645046  0.30368765  0.99191726     0.88100
C45         C  0.46332664  0.30841770  0.99005514     0.88100
C46         C  0.53096205  0.23320273  0.99480207     0.88300
C47         C  0.15139553  0.27235604  0.00213235    -0.02100
C48         C  0.29150218  0.12119567  0.00778552    -0.02100
C49         C  0.13917599  0.69055200  0.99456642    -0.02100
C50         C  0.29720413  0.82496731  0.00231406    -0.02100
O51         O  0.25977592  0.51301439  0.00832479    -0.74000
O52         O  0.31559074  0.46103412  0.00765032    -0.74100
O53         O  0.31359686  0.51435236  0.00435808    -0.74100
O54         O  0.26169787  0.45929795  0.01170945    -0.74200
O55         O  0.25852127  0.45620197  0.96760005    -0.74100
O56         O  0.31036378  0.51158479  0.96003339    -0.74100
O57         O  0.31234440  0.45815262  0.96333603    -0.74100
O58         O  0.25650053  0.50997474  0.96413217    -0.74100
Ni59       Ni  0.28769983  0.48701875  0.00958698     1.25400
Ni60       Ni  0.28422829  0.48387043  0.96219421     1.25400
C61         C  0.24945624  0.52066978  0.98622368     0.88100
C62         C  0.32339284  0.45132848  0.98533197     0.88100
C63         C  0.32046999  0.52208862  0.98103584     0.88100
C64         C  0.25198887  0.44807282  0.99094940     0.88300
O65         O  0.52395642  0.95544198  0.74149388    -0.74000
O66         O  0.47065806  0.95191332  0.68652683    -0.74100
O67         O  0.52488194  0.95323400  0.68773032    -0.74100
O68         O  0.46898858  0.95424115  0.74014129    -0.74200
O69         O  0.46857148  0.99847037  0.73900413    -0.74100
O70         O  0.52335869  0.99737988  0.68540559    -0.74100
O71         O  0.46905875  0.99610034  0.68531001    -0.74100
O72         O  0.52373487  0.99961763  0.73901598    -0.74100
Ni73       Ni  0.49717425  0.95214684  0.71416713     1.25400
Ni74       Ni  0.49615871  0.99947776  0.71224557     1.25400
C75         C  0.53350064  0.97804820  0.74837652     0.88100
C76         C  0.46065360  0.97340920  0.67731734     0.88100
C77         C  0.53338740  0.97518409  0.67803923     0.88100
C78         C  0.45862541  0.97644887  0.74707523     0.88300
C79         C  0.85831268  0.98158347  0.71757910    -0.02100
C80         C  0.70654138  0.97692524  0.85789902    -0.02100
O81         O  0.74513771  0.95497592  0.47909040    -0.74000
O82         O  0.68706136  0.95366438  0.52937399    -0.74100
O83         O  0.69129554  0.95365098  0.47557591    -0.74100
O84         O  0.74101003  0.95461521  0.53371429    -0.74200
O85         O  0.74050715  0.99866279  0.53379582    -0.74100
O86         O  0.68986031  0.99788642  0.47610509    -0.74100
O87         O  0.68677229  0.99792036  0.52989627    -0.74100
O88         O  0.74389914  0.99904508  0.47916841    -0.74100
Ni89       Ni  0.71629769  0.95265217  0.50446128     1.25400
Ni90       Ni  0.71538471  0.99994208  0.50473731     1.25400
C91         C  0.75326982  0.97727437  0.46983430     0.88100
C92         C  0.67725942  0.97567199  0.53766743     0.88100
C93         C  0.68225442  0.97556059  0.46643185     0.88100
C94         C  0.74815300  0.97669262  0.54420399     0.88300
C95         C  0.14042636  0.98310538  0.71571711    -0.02100
C96         C  0.28898989  0.97497808  0.86134415    -0.02100
O97         O  0.25171169  0.94629585  0.53216407    -0.74000
O98         O  0.30420799  0.94113065  0.47655263    -0.74100
O99         O  0.30567702  0.94400900  0.53035198    -0.74100
O100        O  0.25019413  0.94341157  0.47739804    -0.74200
O101        O  0.25205208  0.98735214  0.47500177    -0.74100
O102        O  0.30769383  0.98813827  0.52769038    -0.74100
O103        O  0.30586215  0.98528124  0.47399442    -0.74100
O104        O  0.25358007  0.99036879  0.52956222    -0.74100
Ni105      Ni  0.27770684  0.94213880  0.50420815     1.25400
Ni106      Ni  0.27969678  0.98934843  0.50151915     1.25400
C107        C  0.24513543  0.96924617  0.54101032     0.88100
C108        C  0.31368186  0.96238629  0.46620743     0.88100
C109        C  0.31623882  0.96615719  0.53722215     0.88100
C110        C  0.24288669  0.96515358  0.46638285     0.88300
C111        C  0.29025860  0.97070131  0.14769531    -0.02100
C112        C  0.13919529  0.96662576  0.28976272    -0.02100
C113        C  0.70373329  0.97691976  0.14772191    -0.02100
C114        C  0.85174056  0.98580602  0.29155813    -0.02100
O115        O  0.47000443  0.93926242  0.26903327    -0.74000
O116        O  0.52629082  0.94131485  0.32134826    -0.74100
O117        O  0.47224838  0.93921533  0.32279836    -0.74100
O118        O  0.52492281  0.94095576  0.26751371    -0.74200
O119        O  0.52328671  0.98518583  0.26705415    -0.74100
O120        O  0.47114812  0.98343397  0.32328895    -0.74100
O121        O  0.52509622  0.98551126  0.32090272    -0.74100
O122        O  0.46841198  0.98349721  0.26964246    -0.74100
Ni123      Ni  0.49843135  0.93860876  0.29501889     1.25400
Ni124      Ni  0.49694211  0.98598099  0.29506027     1.25400
C125        C  0.45901237  0.96111349  0.26195310     0.88100
C126        C  0.53466278  0.96379751  0.33001159     0.88100
C127        C  0.46328851  0.96098913  0.33240442     0.88100
C128        C  0.53366812  0.96331631  0.25911377     0.88300
O129        O  0.98094258  0.44835505  0.73623347    -0.74000
O130        O  0.98363246  0.49899713  0.67937027    -0.74100
O131        O  0.98197247  0.44536464  0.68226746    -0.74100
O132        O  0.98276772  0.50244983  0.73299713    -0.74200
O133        O  0.02743473  0.50159129  0.73316498    -0.74100
O134        O  0.02652750  0.44377887  0.68368064    -0.74100
O135        O  0.02812586  0.49741686  0.67960495    -0.74100
O136        O  0.02543095  0.44766444  0.73740374    -0.74100
Ni137      Ni  0.98073419  0.47379172  0.70777610     1.25400
Ni138      Ni  0.02845164  0.47252093  0.70858079     1.25400
C139        C  0.00279579  0.43906137  0.74582227     0.88100
C140        C  0.00626487  0.50681842  0.67018331     0.88100
C141        C  0.00420651  0.43545626  0.67428165     0.88100
C142        C  0.00531032  0.51221094  0.74034218     0.88300
C143        C  0.99830116  0.83367176  0.70261322    -0.02100
C144        C  0.99984892  0.68599979  0.84591841    -0.02100
O145        O  0.02726063  0.71405835  0.46881428    -0.74000
O146        O  0.02670529  0.66016154  0.52255111    -0.74100
O147        O  0.02750442  0.66060829  0.46849476    -0.74100
O148        O  0.02653664  0.71373366  0.52332209    -0.74200
O149        O  0.98188123  0.71235881  0.52360043    -0.74100
O150        O  0.98284461  0.66140775  0.46683739    -0.74100
O151        O  0.98204761  0.65895515  0.52082588    -0.74100
O152        O  0.98263383  0.71475358  0.46906705    -0.74100
Ni153      Ni  0.02860218  0.68725445  0.49584113     1.25400
Ni154      Ni  0.98075548  0.68697468  0.49508821     1.25400
C155        C  0.00504269  0.72251785  0.45934398     0.88100
C156        C  0.00428527  0.65035398  0.53011645     0.88100
C157        C  0.00534720  0.65258203  0.45840431     0.88100
C158        C  0.00404127  0.72101936  0.53315308     0.88300
C159        C  0.99933108  0.68005962  0.14806377    -0.02100
C160        C  0.98479423  0.83057773  0.28842419    -0.02100
O161        O  0.97588928  0.49672291  0.26313404    -0.74000
O162        O  0.97694429  0.44127764  0.31553030    -0.74100
O163        O  0.97856890  0.49508423  0.31670868    -0.74100
O164        O  0.97406304  0.44249676  0.26154165    -0.74200
O165        O  0.01862239  0.44096176  0.25935486    -0.74100
O166        O  0.02306369  0.49413836  0.31402089    -0.74100
O167        O  0.02134528  0.44015446  0.31342803    -0.74100
O168        O  0.02044241  0.49526369  0.26043566    -0.74100
Ni169      Ni  0.97479632  0.46886593  0.28922122     1.25400
Ni170      Ni  0.02245245  0.46750254  0.28666073     1.25400
C171        C  0.99806360  0.50604721  0.25425484     0.88100
C172        C  0.99928498  0.43159350  0.32340563     0.88100
C173        C  0.00155250  0.50391949  0.32385459     0.88100
C174        C  0.99557599  0.43243325  0.25199433     0.88300
C175        C  0.00488855  0.12582207  0.72031540    -0.02100
C176        C  0.99829970  0.27460084  0.86435008    -0.02100
C177        C  0.00384599  0.12071603  0.28548980    -0.02100
C178        C  0.00327187  0.26508780  0.13871620    -0.02100
O179        O  0.02241397  0.22551080  0.52903921    -0.74000
O180        O  0.02609575  0.28005864  0.47573603    -0.74100
O181        O  0.02423767  0.27892587  0.53010525    -0.74100
O182        O  0.02405112  0.22661473  0.47431973    -0.74200
O183        O  0.97943379  0.22819273  0.47334548    -0.74100
O184        O  0.97960479  0.28097365  0.52823046    -0.74100
O185        O  0.98144207  0.28162959  0.47434914    -0.74100
O186        O  0.97780598  0.22764781  0.52823476    -0.74100
Ni187      Ni  0.02579652  0.25262697  0.50234882     1.25400
Ni188      Ni  0.97799209  0.25450550  0.50097361     1.25400
C189        C  0.99954296  0.21852570  0.53828956     0.88100
C190        C  0.00437126  0.28964310  0.46616857     0.88100
C191        C  0.00190937  0.28845796  0.53828822     0.88100
C192        C  0.00165863  0.21952994  0.46400151     0.88300
C193        C  0.97983855  0.14792804  0.35593656    -0.22100
C194        C  0.00190628  0.16326475  0.36318656     0.09900
C195        C  0.02274068  0.16686607  0.34478398     0.10300
C196        C  0.02165953  0.15374696  0.32011119    -0.17000
C197        C  0.00064952  0.13610684  0.31292725    -0.27400
C198        C  0.97779689  0.13589095  0.33066371     0.18600
C199        C  0.00148920  0.17731424  0.38924953     0.12600
C200        C  0.04609299  0.18477610  0.35108362    -0.11800
H201        H  0.03807893  0.15676527  0.30657224     0.12900
C202        C  0.94981891  0.12643239  0.32391596    -0.22600
H203        H  0.96322687  0.14657029  0.36983716     0.08500
C204        C  0.98505535  0.19968154  0.39332804     0.04800
C205        C  0.98499270  0.21221458  0.41832517    -0.19800
C206        C  0.00127042  0.20326418  0.43933965    -0.12100
C207        C  0.01771138  0.18073269  0.43524037     0.13600
C208        C  0.01756474  0.16806672  0.41020735    -0.22600
C209        C  0.96820839  0.21085516  0.37106275    -0.05600
H210        H  0.97275959  0.22973328  0.42121485     0.15100
C211        C  0.03501276  0.16896610  0.45679859    -0.15800
H212        H  0.02999721  0.15073485  0.40703136     0.09400
H213        H  0.93462612  0.13888502  0.33419668     0.07300
H214        H  0.94665829  0.10588809  0.33106375     0.08500
H215        H  0.94469083  0.12873779  0.30271575     0.07500
H216        H  0.05688907  0.17727504  0.36889291     0.02400
H217        H  0.03877227  0.20516745  0.35515456     0.02900
H218        H  0.06057176  0.18578707  0.33428795     0.06400
H219        H  0.95729714  0.22897463  0.37740926     0.05400
H220        H  0.95315072  0.19600697  0.36451683    -0.00400
H221        H  0.98122211  0.21617291  0.35390744     0.01100
H222        H  0.02952454  0.14781073  0.45969138     0.04700
H223        H  0.03267620  0.17894221  0.47631251     0.06700
H224        H  0.05637143  0.17014089  0.45074564     0.07500
C225        C  0.02601700  0.17433145  0.23177905    -0.22100
C226        C  0.00154594  0.18661755  0.22683039     0.09900
C227        C  0.97891442  0.17881026  0.24142680     0.10300
C228        C  0.98166554  0.15954889  0.26136430    -0.17000
C229        C  0.00514756  0.14402418  0.26437706    -0.27400
C230        C  0.02858374  0.15329730  0.25009011     0.18600
C231        C  0.00009250  0.20655086  0.20513770     0.12600
C232        C  0.95141061  0.18921622  0.23471205    -0.11800
H233        H  0.96433897  0.15516643  0.27340867     0.12900
C234        C  0.05695877  0.14312328  0.25349547    -0.22600
H235        H  0.04330163  0.18102787  0.22051364     0.08500
C236        C  0.99840601  0.23383649  0.21025666     0.04800
C237        C  0.99659756  0.25150647  0.18875354    -0.19800
C238        C  0.00114966  0.24360824  0.16178810    -0.12100
C239        C  0.00177374  0.21542473  0.15712800     0.13600
C240        C  0.00114415  0.19769905  0.17880288    -0.22600
C241        C  0.00013578  0.24462201  0.23834240    -0.05600
H242        H  0.99181213  0.27165166  0.19391076     0.15100
C243        C  0.00383296  0.20291526  0.12986584    -0.15800
H244        H  0.00207241  0.17649365  0.17527303     0.09400
H245        H  0.07189978  0.15680265  0.24450536     0.07300
H246        H  0.05977555  0.12416765  0.24285590     0.08500
H247        H  0.06291445  0.14148673  0.27462750     0.07500
H248        H  0.94666143  0.18446078  0.21358722     0.02400
H249        H  0.95032310  0.21095018  0.23746707     0.02900
H250        H  0.93568818  0.18005338  0.24740072     0.06400
H251        H  0.99946091  0.26664140  0.23870431     0.05400
H252        H  0.01937566  0.23838203  0.24747639    -0.00400
H253        H  0.98350079  0.23720275  0.25085437     0.01100
H254        H  0.00566943  0.18099307  0.13094220     0.04700
H255        H  0.02201965  0.20991641  0.11961614     0.06700
H256        H  0.98552044  0.20665266  0.11809377     0.07500
C257        C  0.01437646  0.16631351  0.59138614    -0.22100
C258        C  0.00002331  0.17665854  0.61308790     0.09900
C259        C  0.98444897  0.19969567  0.60955631     0.10300
C260        C  0.98349448  0.21183910  0.58436618    -0.17000
C261        C  0.99831776  0.20194451  0.56269585    -0.27400
C262        C  0.01371819  0.17863126  0.56620207     0.18600
C263        C  0.00144263  0.16313610  0.63940786     0.12600
C264        C  0.96937256  0.21181472  0.63257434    -0.11800
H265        H  0.97204839  0.22992538  0.58189214     0.12900
C266        C  0.02911519  0.16584652  0.54378792    -0.22600
H267        H  0.02615312  0.14847653  0.59412197     0.08500
C268        C  0.98321287  0.14321688  0.64653577     0.04800
C269        C  0.98463752  0.13172127  0.67200762    -0.19800
C270        C  0.00368597  0.13966510  0.69169959    -0.12100
C271        C  0.02258672  0.15974020  0.68336306     0.13600
C272        C  0.02109965  0.17074852  0.65760034    -0.22600
C273        C  0.96248741  0.13359353  0.62687526    -0.05600
H274        H  0.97163187  0.11503293  0.67516602     0.15100
C275        C  0.04454434  0.17132548  0.70051374    -0.15800
H276        H  0.03524204  0.18604030  0.65175164     0.09400
H277        H  0.02242224  0.14496126  0.54138826     0.07300
H278        H  0.05083006  0.16604393  0.54854319     0.08500
H279        H  0.02604092  0.17585281  0.52439388     0.07500
H280        H  0.98362348  0.21741649  0.64864443     0.02400
H281        H  0.95466604  0.19733441  0.64056912     0.02900
H282        H  0.95833038  0.22992094  0.62646814     0.06400
H283        H  0.94963981  0.11772780  0.63541133     0.05400
H284        H  0.97257038  0.12551448  0.60887340    -0.00400
H285        H  0.94932508  0.15027778  0.62090605     0.01100
H286        H  0.06435788  0.16562770  0.69226690     0.04700
H287        H  0.04377411  0.16556036  0.72148021     0.06700
H288        H  0.04299725  0.19330728  0.70049106     0.07500
C289        C  0.00393401  0.16361870  0.78979364    -0.22100
C290        C  0.99745395  0.18933619  0.78212776     0.09900
C291        C  0.99090701  0.19421120  0.75534706     0.10300
C292        C  0.99244427  0.17344583  0.73661934    -0.17000
C293        C  0.00145537  0.14744496  0.74329283    -0.27400
C294        C  0.00458042  0.14243611  0.77146740     0.18600
C295        C  0.99711988  0.21056783  0.80286036     0.12600
C296        C  0.98185108  0.22132873  0.74656462    -0.11800
H297        H  0.98614978  0.17805681  0.71656469     0.12900
C298        C  0.00734292  0.11534320  0.78380346    -0.22600
H299        H  0.00802182  0.16004546  0.81074045     0.08500
C300        C  0.97752525  0.21135500  0.82298740     0.04800
C301        C  0.97906963  0.23076059  0.84307067    -0.19800
C302        C  0.99908995  0.25086939  0.84340098    -0.12100
C303        C  0.01984127  0.24853495  0.82350131     0.13600
C304        C  0.01808415  0.22887513  0.80356821    -0.22600
C305        C  0.95462544  0.19180205  0.82319133    -0.05600
H306        H  0.96480126  0.22901402  0.85905151     0.15100
C307        C  0.04454448  0.26594417  0.82277945    -0.15800
H308        H  0.03364217  0.22730462  0.78855460     0.09400
H309        H  0.98975171  0.10304004  0.77880896     0.07300
H310        H  0.00759245  0.11620287  0.80595783     0.08500
H311        H  0.02641590  0.10594305  0.77841851     0.07500
H312        H  0.99796495  0.23607277  0.75024798     0.02400
H313        H  0.96370207  0.22716856  0.75793479     0.02900
H314        H  0.97689556  0.22181943  0.72496101     0.06400
H315        H  0.94031760  0.19583100  0.83967295     0.05400
H316        H  0.96229130  0.17134393  0.82580724    -0.00400
H317        H  0.94346144  0.19306436  0.80406950     0.01100
H318        H  0.05779363  0.26111271  0.83980724     0.04700
H319        H  0.03945384  0.28726232  0.82286717     0.06700
H320        H  0.05666248  0.26250403  0.80451645     0.07500
C321        C  0.97922186  0.37741701  0.37365254    -0.22100
C322        C  0.00408586  0.37103144  0.38480212     0.09900
C323        C  0.02724187  0.38422800  0.37568879     0.10300
C324        C  0.02495874  0.40358587  0.35563784    -0.17000
C325        C  0.99997626  0.41045437  0.34446486    -0.27400
C326        C  0.97668711  0.39705470  0.35390525     0.18600
C327        C  0.00517615  0.35063672  0.40622386     0.12600
C328        C  0.05430861  0.37828975  0.38752840    -0.11800
H329        H  0.04292619  0.41363277  0.34892818     0.12900
C330        C  0.94895428  0.40302678  0.34365256    -0.22600
H331        H  0.96156830  0.36703985  0.38073385     0.08500
C332        C  0.99517730  0.35578428  0.43210100     0.04800
C333        C  0.99533459  0.33548191  0.45128594    -0.19800
C334        C  0.00562227  0.31028668  0.44534606    -0.12100
C335        C  0.01604818  0.30522691  0.41956415     0.13600
C336        C  0.01560042  0.32547505  0.40032492    -0.22600
C337        C  0.98468824  0.38278830  0.43959236    -0.05600
H338        H  0.98747418  0.33929557  0.47109551     0.15100
C339        C  0.02692175  0.27855381  0.41131815    -0.15800
H340        H  0.02306800  0.32147689  0.38040337     0.09400
H341        H  0.93352133  0.39023134  0.35311432     0.07300
H342        H  0.94798082  0.39945339  0.32184952     0.08500
H343        H  0.94360947  0.42389760  0.34823864     0.07500
H344        H  0.05965582  0.35725906  0.38380565     0.02400
H345        H  0.05387600  0.38199695  0.40937516     0.02900
H346        H  0.07025372  0.39090836  0.37869907     0.06400
H347        H  0.97850878  0.38365013  0.46087087     0.05400
H348        H  0.96698373  0.38775735  0.42721132    -0.00400
H349        H  0.00053908  0.39792567  0.43637957     0.01100
H350        H  0.01522966  0.27084516  0.39411182     0.04700
H351        H  0.02589458  0.26351518  0.42735990     0.06700
H352        H  0.04819041  0.28071935  0.40522173     0.07500
C353        C  0.97917347  0.36605033  0.21927968    -0.22100
C354        C  0.99515666  0.36723465  0.19638593     0.09900
C355        C  0.00983783  0.39051714  0.19084076     0.10300
C356        C  0.00928749  0.41165451  0.20917870    -0.17000
C357        C  0.99396449  0.41021222  0.23266465    -0.27400
C358        C  0.97849573  0.38707656  0.23763963     0.18600
C359        C  0.99802571  0.34292041  0.17994299     0.12600
C360        C  0.02601033  0.39298811  0.16558355    -0.11800
H361        H  0.02094671  0.42937631  0.20522449     0.12900
C362        C  0.96228668  0.38289213  0.26268117    -0.22600
H363        H  0.96803067  0.34803977  0.22345624     0.08500
C364        C  0.01911211  0.32516109  0.18440602     0.04800
C365        C  0.02067092  0.30197857  0.16914124    -0.19800
C366        C  0.00059440  0.29428888  0.15049931    -0.12100
C367        C  0.98118844  0.31441377  0.14391315     0.13600
C368        C  0.97955151  0.33754154  0.15974237    -0.22600
C369        C  0.03944332  0.33005043  0.20615275    -0.05600
H370        H  0.03694449  0.28863350  0.17335376     0.15100
C371        C  0.96369726  0.31497274  0.11932725    -0.15800
H372        H  0.96417888  0.35216018  0.15564531     0.09400
H373        H  0.96885862  0.36434750  0.27263972     0.07300
H374        H  0.94076477  0.38099377  0.25742701     0.08500
H375        H  0.96452552  0.39897782  0.27745259     0.07500
H376        H  0.01262128  0.39070917  0.14803285     0.02400
H377        H  0.04164463  0.37740901  0.16482765     0.02900
H378        H  0.03607256  0.41259843  0.16417697     0.06400
H379        H  0.05443911  0.31385182  0.20733266     0.05400
H380        H  0.02914735  0.33133797  0.22575156    -0.00400
H381        H  0.05034375  0.34886071  0.20241430     0.01100
H382        H  0.94284457  0.30955587  0.12466312     0.04700
H383        H  0.97121733  0.30285238  0.10269507     0.06700
H384        H  0.96325529  0.33535710  0.11092272     0.07500
C385        C  0.02152673  0.61835764  0.19182348    -0.22100
C386        C  0.99913961  0.60189145  0.19035808     0.09900
C387        C  0.97656199  0.61055315  0.17619518     0.10300
C388        C  0.97701848  0.63538732  0.16352627    -0.17000
C389        C  0.00008558  0.65214923  0.16317681    -0.27400
C390        C  0.02240289  0.64313092  0.17896407     0.18600
C391        C  0.99888356  0.57681797  0.20597660     0.12600
C392        C  0.95176153  0.59351463  0.17449291    -0.11800
H393        H  0.95840541  0.64157490  0.15464446     0.12900
C394        C  0.04797150  0.65831392  0.18317048    -0.22600
H395        H  0.03857089  0.61187845  0.20354928     0.08500
C396        C  0.01256278  0.55380765  0.19747764     0.04800
C397        C  0.01194863  0.53088107  0.21352869    -0.19800
C398        C  0.99791213  0.53048781  0.23784289    -0.12100
C399        C  0.98485213  0.55392800  0.24659511     0.13600
C400        C  0.98525685  0.57655084  0.23037156    -0.22600
C401        C  0.02752345  0.55342478  0.17139812    -0.05600
H402        H  0.02230272  0.51314101  0.20700623     0.15100
C403        C  0.97141841  0.55657432  0.27344146    -0.15800
H404        H  0.97530852  0.59445543  0.23711822     0.09400
H405        H  0.06522855  0.64627848  0.17619991     0.07300
H406        H  0.05055646  0.66279612  0.20472498     0.08500
H407        H  0.04855765  0.67689817  0.17232470     0.07500
H408        H  0.94338634  0.59023776  0.19473395     0.02400
H409        H  0.95688196  0.57407245  0.16540884     0.02900
H410        H  0.93594112  0.60282057  0.16207496     0.06400
H411        H  0.03679399  0.53378511  0.16752054     0.05400
H412        H  0.04370558  0.56854332  0.17172725    -0.00400
H413        H  0.01353899  0.55787864  0.15477429     0.01100
H414        H  0.98052252  0.57341005  0.28454490     0.04700
H415        H  0.97352374  0.53890242  0.28622413     0.06700
H416        H  0.94975822  0.56060994  0.27058456     0.07500
C417        C  0.01656746  0.74355607  0.19177113    -0.22100
C418        C  0.99678112  0.74157820  0.21126629     0.09900
C419        C  0.98120161  0.71840844  0.21252545     0.10300
C420        C  0.98433469  0.69876998  0.19281786    -0.17000
C421        C  0.00230586  0.70149008  0.17097033    -0.27400
C422        C  0.02120221  0.72329011  0.17298255     0.18600
C423        C  0.99330451  0.76391138  0.23045267     0.12600
C424        C  0.96063913  0.71468851  0.23421809    -0.11800
H425        H  0.97082034  0.68197437  0.19342469     0.12900
C426        C  0.04744151  0.72703867  0.15813793    -0.22600
H427        H  0.02938564  0.76096915  0.19189324     0.08500
C428        C  0.01222436  0.76930018  0.25039463     0.04800
C429        C  0.00844982  0.79108855  0.26732648    -0.19800
C430        C  0.98598870  0.80849518  0.26567559    -0.12100
C431        C  0.96626943  0.80193298  0.24544440     0.13600
C432        C  0.97088603  0.78021920  0.22816866    -0.22600
C433        C  0.03626676  0.75167460  0.25430677    -0.05600
H434        H  0.02361069  0.79472501  0.28236424     0.15100
C435        C  0.93970677  0.81565915  0.24096756    -0.15800
H436        H  0.95662210  0.77563033  0.21248942     0.09400
H437        H  0.06357833  0.73109483  0.17288254     0.07300
H438        H  0.04612421  0.74451656  0.14475711     0.08500
H439        H  0.05509966  0.71006054  0.14685588     0.07500
H440        H  0.94513973  0.73037066  0.23286067     0.02400
H441        H  0.97050967  0.71581020  0.25404523     0.02900
H442        H  0.95040916  0.69517337  0.23262140     0.06400
H443        H  0.04863199  0.75809618  0.27157958     0.05400
H444        H  0.04918740  0.75213184  0.23631084    -0.00400
H445        H  0.02956316  0.73099277  0.25800297     0.01100
H446        H  0.94266530  0.83416084  0.22950578     0.04700
H447        H  0.92845383  0.81891117  0.25964235     0.06700
H448        H  0.92600449  0.80349449  0.22845659     0.07500
C449        C  0.99108666  0.61420036  0.39458134    -0.22100
C450        C  0.00454425  0.59041923  0.39988240     0.09900
C451        C  0.01942285  0.58776301  0.42364838     0.10300
C452        C  0.01981224  0.60872006  0.44208411    -0.17000
C453        C  0.00573036  0.63227155  0.43721678    -0.27400
C454        C  0.99174499  0.63536063  0.41282134     0.18600
C455        C  0.00312254  0.56855475  0.38018035     0.12600
C456        C  0.03472596  0.56273632  0.42957407    -0.11800
H457        H  0.03068239  0.60649945  0.46067899     0.12900
C458        C  0.97818014  0.66087252  0.40490521    -0.22600
H459        H  0.98018283  0.61632151  0.37599102     0.08500
C460        C  0.98300630  0.54895680  0.38156744     0.04800
C461        C  0.98317127  0.52796121  0.36312946    -0.19800
C462        C  0.00300148  0.52612952  0.34328880    -0.12100
C463        C  0.02271525  0.54636763  0.34150822     0.13600
C464        C  0.02255891  0.56722420  0.36011449    -0.22600
C465        C  0.96137151  0.55030058  0.40247483    -0.05600
H466        H  0.96778716  0.51281444  0.36430897     0.15100
C467        C  0.04334851  0.54681339  0.31953755    -0.15800
H468        H  0.03770189  0.58262473  0.35907570     0.09400
H469        H  0.95635840  0.65737358  0.40249101     0.07300
H470        H  0.98651876  0.66784216  0.38559329     0.10900
H471        H  0.98114149  0.67709923  0.41953028     0.07500
H472        H  0.04989996  0.55928859  0.41375703     0.02400
H473        H  0.02078249  0.54558423  0.43025254     0.02900
H474        H  0.04528599  0.56392220  0.44904997     0.06400
H475        H  0.94712190  0.53344546  0.40074875     0.05400
H476        H  0.94991065  0.56901024  0.40019406    -0.00400
H477        H  0.97043821  0.54974244  0.42268954     0.01100
H478        H  0.03323911  0.54626337  0.29979291     0.04700
H479        H  0.05701113  0.52960437  0.32150258     0.06700
H480        H  0.05585973  0.56503709  0.32029762     0.07500
C481        C  0.01907109  0.75119992  0.39061783    -0.22100
C482        C  0.99955091  0.77101855  0.38911445     0.09900
C483        C  0.98277165  0.77589191  0.41120953     0.10300
C484        C  0.98557043  0.76037393  0.43429576    -0.17000
C485        C  0.00498524  0.74029835  0.43584406    -0.27400
C486        C  0.02209374  0.73577638  0.41370100     0.18600
C487        C  0.99647064  0.78584405  0.36381389     0.12600
C488        C  0.96192748  0.79743190  0.41031861    -0.11800
H489        H  0.97236614  0.76374217  0.45112837     0.12900
C490        C  0.04268732  0.71392656  0.41362956    -0.22600
H491        H  0.03170020  0.74752912  0.37340759     0.08500
C492        C  0.01414627  0.80623187  0.35664492     0.04800
C493        C  0.01031366  0.81970881  0.33250898    -0.19800
C494        C  0.98843535  0.81427505  0.31510372    -0.12100
C495        C  0.97230681  0.79145679  0.32177827     0.13600
C496        C  0.97616413  0.77841240  0.34625413    -0.22600
C497        C  0.03714488  0.81386429  0.37460697    -0.05600
H498        H  0.02518142  0.83437642  0.32766854     0.15100
C499        C  0.95097690  0.77981809  0.30376819    -0.15800
H500        H  0.96351433  0.76174823  0.35162883     0.09400
H501        H  0.05319765  0.71247177  0.39414670     0.07300
H502        H  0.03284259  0.69454440  0.41749646     0.08500
H503        H  0.05806663  0.71784677  0.42913119     0.07500
H504        H  0.94730350  0.79326014  0.39415649     0.02400
H505        H  0.97173451  0.81683606  0.40645800     0.02900
H506        H  0.95074997  0.79891869  0.42942272     0.06400
H507        H  0.04895359  0.83064298  0.36635681     0.05400
H508        H  0.05085529  0.79674808  0.37711019    -0.00400
H509        H  0.02934949  0.81994279  0.39444213     0.01100
H510        H  0.96031979  0.76841269  0.28734429     0.04700
H511        H  0.93772544  0.79534500  0.29578172     0.06700
H512        H  0.93787647  0.76560359  0.31456812     0.07500
C513        C  0.97731605  0.79849972  0.63490022    -0.22100
C514        C  0.00094112  0.78499631  0.62899659     0.09900
C515        C  0.02261637  0.78675715  0.64667959     0.10300
C516        C  0.02033415  0.80259994  0.66954324    -0.17000
C517        C  0.99718401  0.81783945  0.67551895    -0.27400
C518        C  0.97444923  0.81411945  0.65806767     0.18600
C519        C  0.00199561  0.76832042  0.60457468     0.12600
C520        C  0.04816822  0.77169654  0.64162340    -0.11800
H521        H  0.03736709  0.80357554  0.68272230     0.12900
C522        C  0.94638533  0.82439933  0.66283986    -0.22600
H523        H  0.96062354  0.79633994  0.62120661     0.08500
C524        C  0.98792892  0.74405681  0.60296766     0.04800
C525        C  0.98859201  0.72945583  0.57913189    -0.19800
C526        C  0.00350210  0.73817872  0.55707542    -0.12100
C527        C  0.01794650  0.76225512  0.55879541     0.13600
C528        C  0.01679320  0.77719358  0.58249713    -0.22600
C529        C  0.97275184  0.73324313  0.62658208    -0.05600
H530        H  0.97788104  0.71076566  0.57788232     0.15100
C531        C  0.03387319  0.77260633  0.53549334    -0.15800
H532        H  0.02740789  0.79592075  0.58384506     0.09400
H533        H  0.93981901  0.82195530  0.68373418     0.07300
H534        H  0.93137651  0.81316691  0.65094843     0.08500
H535        H  0.94463436  0.84515382  0.65598119     0.07500
H536        H  0.05735178  0.77837076  0.62261392     0.02400
H537        H  0.04379536  0.75013140  0.64038166     0.02900
H538        H  0.06305779  0.77486397  0.65779370     0.06400
H539        H  0.96368268  0.71359061  0.62215341     0.05400
H540        H  0.95635228  0.74696713  0.63220357    -0.00400
H541        H  0.98656737  0.73087332  0.64377921     0.01100
H542        H  0.04297752  0.79224115  0.53993150     0.04700
H543        H  0.02060861  0.77483742  0.51785197     0.06700
H544        H  0.05034299  0.75867858  0.53062085     0.07500
C545        C  0.02060745  0.78397033  0.75969537    -0.22100
C546        C  0.99794051  0.76778193  0.76117787     0.09900
C547        C  0.97713953  0.77148461  0.74269259     0.10300
C548        C  0.97882895  0.79235477  0.72429906    -0.17000
C549        C  0.00081455  0.81023583  0.72332304    -0.27400
C550        C  0.02345487  0.80362526  0.73993860     0.18600
C551        C  0.99694959  0.74639877  0.78161024     0.12600
C552        C  0.95308507  0.75336758  0.74220021    -0.11800
H553        H  0.96215204  0.79522267  0.71097123     0.12900
C554        C  0.05188482  0.81364775  0.73685604    -0.22600
H555        H  0.03706583  0.78012072  0.77328708     0.08500
C556        C  0.01304640  0.72367892  0.77982733     0.04800
C557        C  0.01220404  0.70482495  0.80038385    -0.19800
C558        C  0.99543484  0.70735084  0.82320531    -0.12100
C559        C  0.97581937  0.72847822  0.82193748     0.13600
C560        C  0.97873310  0.74849633  0.80257141    -0.22600
C561        C  0.03134184  0.71929489  0.75630286    -0.05600
H562        H  0.02617445  0.68849399  0.79913910     0.15100
C563        C  0.94996044  0.73116963  0.83758924    -0.15800
H564        H  0.96540258  0.76547658  0.80290204     0.09400
H565        H  0.06592775  0.79657890  0.73744179     0.07300
H566        H  0.05701616  0.82704906  0.75370754     0.08500
H567        H  0.05639681  0.82328803  0.71772377     0.07500
H568        H  0.94187316  0.75493205  0.76123961     0.02400
H569        H  0.95968932  0.73255118  0.73925666     0.02900
H570        H  0.93909506  0.75847110  0.72576491     0.06400
H571        H  0.04197573  0.70001287  0.75761209     0.05400
H572        H  0.04668057  0.73520081  0.75537888    -0.00400
H573        H  0.01945139  0.71934050  0.73757448     0.01100
H574        H  0.95093568  0.74879024  0.85082220     0.04700
H575        H  0.94326837  0.71385779  0.84894741     0.06700
H576        H  0.93322572  0.73446330  0.82334432     0.07500
C577        C  0.02239139  0.39001595  0.61614915    -0.22100
C578        C  0.00218646  0.37086484  0.61806092     0.09900
C579        C  0.98268332  0.37296049  0.63827773     0.10300
C580        C  0.98381881  0.39437606  0.65618328    -0.17000
C581        C  0.00396394  0.41380662  0.65426435    -0.27400
C582        C  0.02328917  0.41177856  0.63355560     0.18600
C583        C  0.00124048  0.34953146  0.59777695     0.12600
C584        C  0.96054821  0.35278092  0.64071912    -0.11800
H585        H  0.96899019  0.39583986  0.67191529     0.12900
C586        C  0.04429282  0.43258409  0.62798159    -0.22600
H587        H  0.03709819  0.38841645  0.60029505     0.08500
C588        C  0.99145241  0.35442448  0.57182523     0.04800
C589        C  0.99174108  0.33392482  0.55290515    -0.19800
C590        C  0.00171719  0.30876944  0.55934324    -0.12100
C591        C  0.01080339  0.30362062  0.58557018     0.13600
C592        C  0.01066249  0.32421892  0.60443233    -0.22600
C593        C  0.98054061  0.38120250  0.56418283    -0.05600
H594        H  0.98445808  0.33761072  0.53286057     0.15100
C595        C  0.01994371  0.27658523  0.59456556    -0.15800
H596        H  0.01786588  0.32050937  0.62449739     0.09400
H597        H  0.04285108  0.43889172  0.60679874     0.07300
H598        H  0.06451019  0.42414811  0.63148574     0.08500
H599        H  0.04202911  0.45072779  0.64007232     0.07500
H600        H  0.96918976  0.33286797  0.64448200     0.02400
H601        H  0.94871745  0.35221586  0.62196211     0.02900
H602        H  0.94673426  0.35756232  0.65741230     0.06400
H603        H  0.97318983  0.38143832  0.54326090     0.05400
H604        H  0.99643974  0.39649576  0.56607269    -0.00400
H605        H  0.96356743  0.38643154  0.57749164     0.01100
H606        H  0.04103766  0.27773553  0.60146923     0.04700
H607        H  0.01870278  0.26138788  0.57864062     0.06700
H608        H  0.00718459  0.26978082  0.61138611     0.07500
C609        C  0.02770104  0.55314527  0.61339736    -0.22100
C610        C  0.00460429  0.56855711  0.61050527     0.09900
C611        C  0.98222449  0.56358964  0.62683372     0.10300
C612        C  0.98345877  0.54321892  0.64580015    -0.17000
C613        C  0.00665628  0.52768112  0.64910259    -0.27400
C614        C  0.02919601  0.53289150  0.63256920     0.18600
C615        C  0.00437621  0.58984156  0.59019198     0.12600
C616        C  0.95720711  0.58009855  0.62455612    -0.11800
H617        H  0.96619147  0.53974244  0.65842167     0.12900
C618        C  0.05479259  0.51722810  0.63446788    -0.22600
H619        H  0.04473071  0.55715674  0.60058957     0.08500
C620        C  0.01779032  0.61412611  0.59447458     0.04800
C621        C  0.01758856  0.63342280  0.57433196    -0.19800
C622        C  0.00413619  0.62900574  0.55013674    -0.12100
C623        C  0.99086045  0.60453560  0.54578559     0.13600
C624        C  0.99099985  0.58534968  0.56602049    -0.22600
C625        C  0.03193323  0.61979151  0.62042903    -0.05600
H626        H  0.02768434  0.65220911  0.57759504     0.15100
C627        C  0.97735994  0.59743181  0.51979605    -0.15800
H628        H  0.98100197  0.56650978  0.56274914     0.09400
H629        H  0.06963799  0.52348919  0.61920232     0.07300
H630        H  0.05054270  0.49589717  0.63118796     0.08500
H631        H  0.06418352  0.52026799  0.65430989     0.07500
H632        H  0.94856096  0.57801063  0.60425646     0.02400
H633        H  0.96210467  0.60126988  0.62830141     0.02900
H634        H  0.94172086  0.57391018  0.63920219     0.06400
H635        H  0.04090296  0.63996533  0.62068401     0.05400
H636        H  0.04826900  0.60522639  0.62353336    -0.00400
H637        H  0.01747597  0.61838453  0.63720815     0.01100
H638        H  0.98619946  0.57884365  0.51181740     0.04700
H639        H  0.97972442  0.61274003  0.50416041     0.06700
H640        H  0.95564609  0.59418848  0.52330045     0.07500
C641        C  0.01885250  0.58275171  0.76344063    -0.22100
C642        C  0.00455517  0.58347950  0.78745208     0.09900
C643        C  0.99061933  0.56065929  0.79609206     0.10300
C644        C  0.99132920  0.53754487  0.78039143    -0.17000
C645        C  0.00579998  0.53675361  0.75639716    -0.27400
C646        C  0.01959667  0.55978809  0.74768799     0.18600
C647        C  0.00367362  0.60877718  0.80256063     0.12600
C648        C  0.97525863  0.56065119  0.82195717    -0.11800
H649        H  0.98064588  0.51997001  0.78690115     0.12900
C650        C  0.03429468  0.56153629  0.72142415    -0.22600
H651        H  0.02908599  0.60049711  0.75664904     0.08500
C652        C  0.02590832  0.61828948  0.81678436     0.04800
C653        C  0.02426702  0.64276767  0.83003310    -0.19800
C654        C  0.00043516  0.65830352  0.83059196    -0.12100
C655        C  0.97854479  0.64858072  0.81458598     0.13600
C656        C  0.98057915  0.62416084  0.80125847    -0.22600
C657        C  0.05153682  0.60254702  0.81801113    -0.05600
H658        H  0.04250164  0.64968646  0.83921914     0.15100
C659        C  0.95219275  0.66252322  0.81087352    -0.15800
H660        H  0.96380477  0.61698530  0.78949792     0.09400
H661        H  0.05581556  0.56567593  0.72518349     0.07300
H662        H  0.02582826  0.57799275  0.70938761     0.08500
H663        H  0.03278057  0.54338102  0.70915711     0.07500
H664        H  0.95895984  0.57555865  0.82114668     0.02400
H665        H  0.98896101  0.56557231  0.83870886     0.02900
H666        H  0.96606398  0.54099771  0.82605063     0.06400
H667        H  0.06691161  0.61241216  0.83061933     0.05400
H668        H  0.06001957  0.60018640  0.79768343    -0.00400
H669        H  0.04744711  0.58266276  0.82660666     0.01100
H670        H  0.94939554  0.66754029  0.78948409     0.04700
H671        H  0.95048128  0.68070957  0.82243508     0.06700
H672        H  0.93558677  0.64931925  0.81733837     0.07500
C673        C  0.01962343  0.37821144  0.78821647    -0.22100
C674        C  0.99525312  0.37379471  0.80123218     0.09900
C675        C  0.97398271  0.39174950  0.79754916     0.10300
C676        C  0.97735367  0.41333594  0.78010498    -0.17000
C677        C  0.00156237  0.41746899  0.76619742    -0.27400
C678        C  0.02314202  0.39964829  0.77070890     0.18600
C679        C  0.99240578  0.34932059  0.81743053     0.12600
C680        C  0.94757613  0.38772945  0.81150299    -0.11800
H681        H  0.96075949  0.42680443  0.77700707     0.12900
C682        C  0.04967376  0.40213222  0.75654077    -0.22600
H683        H  0.03582512  0.36425598  0.79130082     0.08500
C684        C  0.98826773  0.32457719  0.80532386     0.04800
C685        C  0.98861568  0.30158884  0.82099382    -0.19800
C686        C  0.99463021  0.30189634  0.84881579    -0.12100
C687        C  0.99442378  0.32777905  0.86115178     0.13600
C688        C  0.99451138  0.35075408  0.84511747    -0.22600
C689        C  0.98338077  0.32240875  0.77568702    -0.05600
H690        H  0.98405920  0.28332968  0.81073777     0.15100
C691        C  0.99313092  0.33254317  0.89086000    -0.15800
H692        H  0.99622983  0.37019813  0.85423777     0.09400
H693        H  0.04660065  0.40120314  0.73460941     0.07300
H694        H  0.06361921  0.38587479  0.76198395     0.08500
H695        H  0.05952687  0.42108997  0.76213219     0.07500
H696        H  0.95058130  0.38830912  0.83344574     0.02400
H697        H  0.93895681  0.36821181  0.80580651     0.02900
H698        H  0.93289899  0.40337433  0.80616152     0.06400
H699        H  0.98002416  0.30156111  0.76930104     0.05400
H700        H  0.00095522  0.33012854  0.76456664    -0.00400
H701        H  0.96538988  0.33410943  0.77020807     0.01100
H702        H  0.01125835  0.32551961  0.90101788     0.04700
H703        H  0.97477044  0.32361277  0.89928513     0.06700
H704        H  0.99186353  0.35400156  0.89573807     0.07500
C705        C  0.91407984  0.93699798  0.29100029    -0.22100
C706        C  0.90154593  0.91292415  0.28550866     0.09900
C707        C  0.87344661  0.91186432  0.28495286     0.10300
C708        C  0.85868248  0.93531494  0.28864413    -0.17000
C709        C  0.87092227  0.96065166  0.29134168    -0.27400
C710        C  0.89963893  0.96044799  0.29542843     0.18600
C711        C  0.91873540  0.88890122  0.28398571     0.12600
C712        C  0.85899933  0.88613935  0.27965176    -0.11800
H713        H  0.83717254  0.93388033  0.28807459     0.12900
C714        C  0.91698834  0.98241540  0.30687097    -0.22600
H715        H  0.93569971  0.93710714  0.29341252     0.08500
C716        C  0.93732382  0.88530981  0.26333134     0.04800
C717        C  0.95692038  0.86559261  0.26568473    -0.19800
C718        C  0.95870903  0.84816016  0.28788522    -0.12100
C719        C  0.93896979  0.85201574  0.30886101     0.13600
C720        C  0.91946936  0.87203297  0.30595953    -0.22600
C721        C  0.93669142  0.90253009  0.23877620    -0.05600
H722        H  0.97167590  0.86403392  0.24989458     0.15100
C723        C  0.93801838  0.83812044  0.33570956    -0.15800
H724        H  0.90529692  0.87578874  0.32191905     0.09400
H725        H  0.93148491  0.98927335  0.29155290     0.07300
H726        H  0.92862789  0.97451770  0.32400915     0.08500
H727        H  0.90658526  0.99957396  0.31516787     0.07500
H728        H  0.86340296  0.87165217  0.29568928     0.02400
H729        H  0.86560951  0.87785786  0.26019381     0.02900
H730        H  0.83695375  0.88892050  0.27884224     0.06400
H731        H  0.95211268  0.89650275  0.22400349     0.05400
H732        H  0.94049954  0.92353658  0.24419558    -0.00400
H733        H  0.91675704  0.90089445  0.22908219     0.01100
H734        H  0.92383737  0.84778950  0.34974208     0.04700
H735        H  0.95733486  0.83872439  0.34635203     0.06700
H736        H  0.93020044  0.81777074  0.33374258     0.07500
C737        C  0.89152442  0.05343555  0.29879746    -0.22100
C738        C  0.90914919  0.05063050  0.27732093     0.09900
C739        C  0.90574581  0.02939737  0.25952235     0.10300
C740        C  0.88488765  0.01133175  0.26386482    -0.17000
C741        C  0.86871965  0.01170750  0.28725676    -0.27400
C742        C  0.87119410  0.03479958  0.30417160     0.18600
C743        C  0.93354450  0.06738736  0.27690389     0.12600
C744        C  0.92582582  0.02387778  0.23768745    -0.11800
H745        H  0.88322378  0.99476924  0.25019527     0.12900
C746        C  0.85390335  0.04207349  0.32783514    -0.22600
H747        H  0.89438180  0.07010499  0.31224426     0.08500
C748        C  0.93719031  0.08860170  0.25916416     0.04800
C749        C  0.96111367  0.10330853  0.26018908    -0.19800
C750        C  0.98008296  0.10031237  0.28122147    -0.12100
C751        C  0.97613615  0.07779576  0.29850945     0.13600
C752        C  0.95331088  0.06180177  0.29562555    -0.22600
C753        C  0.91515310  0.09703841  0.24042948    -0.05600
H754        H  0.96394177  0.11772426  0.24465842     0.15100
C755        C  0.99489308  0.07000243  0.32081595    -0.15800
H756        H  0.95032570  0.04496870  0.30876929     0.09400
H757        H  0.84672019  0.06278533  0.32549417     0.07300
H758        H  0.86596471  0.04100966  0.34642669     0.08500
H759        H  0.83572527  0.03024959  0.33039614     0.07500
H760        H  0.94603220  0.02126203  0.24654386     0.02400
H761        H  0.92653168  0.04036239  0.22318323     0.02900
H762        H  0.92085361  0.00550968  0.22645892     0.06400
H763        H  0.92093873  0.11476032  0.22859875     0.05400
H764        H  0.89703191  0.10218392  0.25217514    -0.00400
H765        H  0.90997559  0.08099282  0.22627463     0.01100
H766        H  0.98592655  0.05483923  0.33418271     0.04700
H767        H  0.00000055  0.08706543  0.33372497     0.06700
H768        H  0.01302317  0.06069134  0.31236361     0.07500
C769        C  0.60398072  0.95408599  0.23195345    -0.22100
C770        C  0.60208201  0.96675187  0.20724076     0.09900
C771        C  0.57744830  0.97780020  0.19912413     0.10300
C772        C  0.55524620  0.97637524  0.21637205    -0.17000
C773        C  0.55720460  0.96384001  0.24130338    -0.27400
C774        C  0.58201522  0.95266916  0.24923709     0.18600
C775        C  0.62678216  0.96929113  0.19109740     0.12600
C776        C  0.57470109  0.99102732  0.17234782    -0.11800
H777        H  0.53629963  0.98497383  0.21038060     0.12900
C778        C  0.58670623  0.94021053  0.27619217    -0.22600
H779        H  0.62306910  0.94589614  0.23814652     0.08500
C780        C  0.64428077  0.99068833  0.19478316     0.04800
C781        C  0.66836659  0.99136762  0.18064433    -0.19800
C782        C  0.67659314  0.97091867  0.16280787    -0.12100
C783        C  0.65804301  0.94909170  0.15913753     0.13600
C784        C  0.63372035  0.94896933  0.17353581    -0.22600
C785        C  0.63768717  0.01279145  0.21399121    -0.05600
H786        H  0.68141945  0.00823710  0.18392235     0.15100
C787        C  0.66160801  0.92564522  0.14054318    -0.15800
H788        H  0.61983207  0.93253855  0.17140061     0.09400
H789        H  0.60321814  0.95084166  0.28654825     0.07300
H790        H  0.59251767  0.91912469  0.27354964     0.08500
H791        H  0.56909582  0.94095271  0.28946644     0.07500
H792        H  0.57942552  0.97658923  0.15627851     0.02400
H793        H  0.58873373  0.00805903  0.17095127     0.02900
H794        H  0.55406351  0.99851930  0.16904306     0.06400
H795        H  0.65364901  0.02815202  0.21455559     0.05400
H796        H  0.63537239  0.00467254  0.23444600    -0.00400
H797        H  0.61873795  0.02254784  0.20794574     0.01100
H798        H  0.64259044  0.91452402  0.13771252     0.04700
H799        H  0.67553887  0.91104938  0.14920232     0.06700
H800        H  0.66765612  0.93140264  0.12023756     0.07500
C801        C  0.77556828  0.98732932  0.17849596    -0.22100
C802        C  0.77127772  0.98143485  0.20533091     0.09900
C803        C  0.74550987  0.97410111  0.21384660     0.10300
C804        C  0.72445871  0.97332357  0.19539158    -0.17000
C805        C  0.72794363  0.97953711  0.16789960    -0.27400
C806        C  0.75475683  0.98626728  0.15964131     0.18600
C807        C  0.79373109  0.98397325  0.22458822     0.12600
C808        C  0.74029488  0.96614829  0.24242003    -0.11800
H809        H  0.70555877  0.96616029  0.20285376     0.12900
C810        C  0.76305879  0.99311258  0.13148606    -0.22600
H811        H  0.79550527  0.99316297  0.17218346     0.08500
C812        C  0.81532619  0.96617108  0.22518686     0.04800
C813        C  0.83473317  0.96860229  0.24536196    -0.19800
C814        C  0.83201221  0.98680671  0.26691376    -0.12100
C815        C  0.81137642  0.00651489  0.26402770     0.13600
C816        C  0.79284429  0.00457854  0.24305145    -0.22600
C817        C  0.81747424  0.94401509  0.20508579    -0.05600
H818        H  0.85192029  0.95577003  0.24398553     0.15100
C819        C  0.80749587  0.02965043  0.28265606    -0.15800
H820        H  0.77673974  0.01889421  0.24141663     0.09400
H821        H  0.77756136  0.97813084  0.12410945     0.07300
H822        H  0.77289722  0.01289512  0.13137053     0.08500
H823        H  0.74656774  0.99431967  0.11713667     0.07500
H824        H  0.74398884  0.98318827  0.25594584     0.02400
H825        H  0.75368389  0.94949651  0.24801624     0.02900
H826        H  0.71928720  0.95958090  0.24553891     0.06400
H827        H  0.83507220  0.93115456  0.20900488     0.05400
H828        H  0.81960492  0.95228248  0.18469561    -0.00400
H829        H  0.79921730  0.93143228  0.20597299     0.01100
H830        H  0.82501277  0.04297981  0.28180529     0.04700
H831        H  0.80306973  0.02275180  0.30303107     0.06700
H832        H  0.79012541  0.04212219  0.27688775     0.07500
C833        C  0.11464604  0.04107495  0.28814102    -0.22100
C834        C  0.08685297  0.03818282  0.28730777     0.09900
C835        C  0.07573339  0.01259072  0.28826596     0.10300
C836        C  0.09264203  0.99048952  0.28866060    -0.17000
C837        C  0.12111166  0.99250232  0.28868503    -0.27400
C838        C  0.13187832  0.01905160  0.28950103     0.18600
C839        C  0.06943988  0.06204461  0.28577875     0.12600
C840        C  0.04582681  0.00842875  0.29027817    -0.11800
H841        H  0.08277526  0.97166149  0.29103679     0.12900
C842        C  0.16130944  0.02587090  0.29093213    -0.22600
H843        H  0.12308346  0.06090479  0.28761604     0.08500
C844        C  0.06643057  0.07961156  0.30738712     0.04800
C845        C  0.04678887  0.09951616  0.30623532    -0.19800
C846        C  0.02934938  0.10253588  0.28396399    -0.12100
C847        C  0.03413801  0.08535313  0.26152381     0.13600
C848        C  0.05393395  0.06572123  0.26293800    -0.22600
C849        C  0.08260184  0.07621252  0.33257541    -0.05600
H850        H  0.04391434  0.11077094  0.32421722     0.15100
C851        C  0.01922267  0.08661631  0.23532507    -0.15800
H852        H  0.05685982  0.05248324  0.24609669     0.09400
H853        H  0.16548715  0.03665244  0.30982112     0.07300
H854        H  0.16669011  0.03890893  0.27388976     0.08500
H855        H  0.17477777  0.00877207  0.28983643     0.07500
H856        H  0.03564752  0.01610458  0.27221947     0.02400
H857        H  0.03805556  0.01883976  0.30819617     0.02900
H858        H  0.04046188  0.98712399  0.29214264     0.06400
H859        H  0.07692276  0.09084790  0.34815454     0.05400
H860        H  0.10419842  0.07902749  0.32824775    -0.00400
H861        H  0.07932708  0.05603874  0.34083225     0.01100
H862        H  0.03379575  0.08743803  0.21859392     0.04700
H863        H  0.00654255  0.10423143  0.23307406     0.06700
H864        H  0.00667652  0.06855956  0.23293675     0.07500
C865        C  0.03461734  0.89138868  0.29763195    -0.22100
C866        C  0.05484795  0.88557557  0.27943570     0.09900
C867        C  0.05225468  0.86303099  0.26316703     0.10300
C868        C  0.02864953  0.84777882  0.26443136    -0.17000
C869        C  0.00886436  0.85140551  0.28464919    -0.27400
C870        C  0.01211296  0.87490034  0.30095842     0.18600
C871        C  0.07916722  0.90271257  0.27961312     0.12600
C872        C  0.07514782  0.85376014  0.24585647    -0.11800
H873        H  0.02667585  0.83261390  0.24946308     0.12900
C874        C  0.99273208  0.88360295  0.32238973    -0.22600
H875        H  0.03694200  0.90894494  0.30996672     0.08500
C876        C  0.08426636  0.92181626  0.25985834     0.04800
C877        C  0.10624375  0.93901538  0.26282781    -0.19800
C878        C  0.12130396  0.94074981  0.28690511    -0.12100
C879        C  0.11704699  0.91959679  0.30598787     0.13600
C880        C  0.09589155  0.90155475  0.30187086    -0.22600
C881        C  0.06492908  0.92623304  0.23715571    -0.05600
H882        H  0.10936970  0.95385353  0.24752913     0.15100
C883        C  0.13326704  0.91331817  0.33080721    -0.15800
H884        H  0.09191704  0.88639184  0.31672713     0.09400
H885        H  0.97396468  0.89093284  0.31338364     0.07300
H886        H  0.00059484  0.90049209  0.33431952     0.08500
H887        H  0.98902651  0.86757110  0.33680136     0.07500
H888        H  0.09296448  0.85000282  0.25855436     0.02400
H889        H  0.08047027  0.86875348  0.23068647     0.02900
H890        H  0.07022878  0.83502879  0.23522584     0.06400
H891        H  0.07128082  0.94296641  0.22421455     0.05400
H892        H  0.04484454  0.93105584  0.24532139    -0.00400
H893        H  0.06322475  0.90840849  0.22440781     0.01100
H894        H  0.12098876  0.91708368  0.34888997     0.04700
H895        H  0.15261137  0.92333435  0.33301956     0.06700
H896        H  0.13859210  0.89192449  0.33061683     0.07500
C897        C  0.38699879  0.97180671  0.24026461    -0.22100
C898        C  0.38742857  0.96155473  0.21435010     0.09900
C899        C  0.41119023  0.95020547  0.20424500     0.10300
C900        C  0.43428516  0.94971231  0.22034880    -0.17000
C901        C  0.43407349  0.96068933  0.24610722    -0.27400
C902        C  0.40990925  0.97141145  0.25636568     0.18600
C903        C  0.36303085  0.96421864  0.19778231     0.12600
C904        C  0.41212113  0.93891758  0.17642148    -0.11800
H905        H  0.45268953  0.94131098  0.21262238     0.12900
C906        C  0.40716225  0.98210408  0.28435106    -0.22600
H907        H  0.36861053  0.98032521  0.24794992     0.08500
C908        C  0.34239232  0.94541125  0.19849100     0.04800
C909        C  0.31981167  0.94905818  0.18237871    -0.19800
C910        C  0.31638501  0.97151819  0.16545109    -0.12100
C911        C  0.33803283  0.99066404  0.16511175     0.13600
C912        C  0.36057191  0.98644605  0.18149642    -0.22600
C913        C  0.34426550  0.92135413  0.21618762    -0.05600
H914        H  0.30427937  0.93402216  0.18299581     0.15100
C915        C  0.33988592  0.01507545  0.14760663    -0.15800
H916        H  0.37690847  0.00065486  0.18157083     0.09400
H917        H  0.39123954  0.97095956  0.29503452     0.07300
H918        H  0.40151240  0.00337638  0.28358319     0.08500
H919        H  0.42565087  0.98031914  0.29624087     0.07500
H920        H  0.40741649  0.95466535  0.16169216     0.02400
H921        H  0.39719946  0.92268118  0.17446640     0.02900
H922        H  0.43219280  0.93076465  0.17159119     0.06400
H923        H  0.32635759  0.90839080  0.21427307     0.05400
H924        H  0.34594175  0.92766056  0.23736091    -0.00400
H925        H  0.36217562  0.90952377  0.21072257     0.01100
H926        H  0.36005988  0.02435838  0.14844722     0.04700
H927        H  0.32625071  0.03072248  0.15467676     0.06700
H928        H  0.33679398  0.01047602  0.12629150     0.07500
C929        C  0.21561255  0.97098775  0.17500968    -0.22100
C930        C  0.21960886  0.97191688  0.20261631     0.09900
C931        C  0.24575220  0.97536015  0.21236084     0.10300
C932        C  0.26736574  0.97522495  0.19455455    -0.17000
C933        C  0.26442051  0.97172508  0.16642211    -0.27400
C934        C  0.23716311  0.97201159  0.15680907     0.18600
C935        C  0.19655275  0.96898989  0.22135448     0.12600
C936        C  0.25095778  0.98020222  0.24169340    -0.11800
H937        H  0.28658618  0.97934880  0.20336324     0.12900
C938        C  0.22910979  0.97324312  0.12774225    -0.22600
H939        H  0.19534675  0.96917046  0.16746760     0.08500
C940        C  0.17632060  0.98814511  0.22390962     0.04800
C941        C  0.15702066  0.98540517  0.24418586    -0.19800
C942        C  0.15877636  0.96573036  0.26454824    -0.12100
C943        C  0.17779388  0.94489023  0.25944540     0.13600
C944        C  0.19590728  0.94691638  0.23808033    -0.22600
C945        C  0.17552375  0.01210552  0.20596049    -0.05600
H946        H  0.14083172  0.99947653  0.24389970     0.15100
C947        C  0.18105955  0.92025448  0.27594352    -0.15800
H948        H  0.21075128  0.93148034  0.23516116     0.09400
H949        H  0.21882587  0.99235147  0.12382004     0.07300
H950        H  0.21498033  0.95682287  0.12316045     0.08500
H951        H  0.24577443  0.97128297  0.11357238     0.07500
H952        H  0.24505730  0.96264061  0.25362033     0.02400
H953        H  0.23934214  0.99770989  0.24851142     0.02900
H954        H  0.27244940  0.98414574  0.24584390     0.06400
H955        H  0.15918801  0.02594292  0.21160618     0.05400
H956        H  0.17209729  0.00593139  0.18499521    -0.00400
H957        H  0.19476855  0.02309174  0.20737455     0.01100
H958        H  0.17672941  0.90249684  0.26352754     0.04700
H959        H  0.16803240  0.91976023  0.29319076     0.06700
H960        H  0.20194232  0.91897566  0.28348750     0.07500
C961        C  0.35563298  0.97423064  0.40416456    -0.22100
C962        C  0.37792894  0.95839293  0.40974663     0.09900
C963        C  0.37869996  0.94330406  0.43338501     0.10300
C964        C  0.35692335  0.94436318  0.45101629    -0.17000
C965        C  0.33467404  0.96049439  0.44567257    -0.27400
C966        C  0.33382794  0.97536900  0.42172815     0.18600
C967        C  0.40029547  0.95810351  0.39050196     0.12600
C968        C  0.40267420  0.92651949  0.44016812    -0.11800
H969        H  0.35760149  0.93315733  0.46945757     0.12900
C970        C  0.31009169  0.99194438  0.41353935    -0.22600
H971        H  0.35516424  0.98561055  0.38581784     0.08500
C972        C  0.40090206  0.93995267  0.36911506     0.04800
C973        C  0.42208680  0.94111175  0.35081173    -0.19800
C974        C  0.44269962  0.95994637  0.35350019    -0.12100
C975        C  0.44252327  0.97749163  0.37562369     0.13600
C976        C  0.42099053  0.97662065  0.39355920    -0.22600
C977        C  0.37905139  0.91961519  0.36548540    -0.05600
H978        H  0.42224197  0.92760608  0.33395353     0.15100
C979        C  0.46501669  0.99655598  0.38175481    -0.15800
H980        H  0.42052448  0.99022651  0.41033822     0.09400
H981        H  0.30312181  0.98554467  0.39348617     0.07300
H982        H  0.31610416  0.01313253  0.41254370     0.08500
H983        H  0.29276102  0.99005289  0.42717767     0.07500
H984        H  0.42077427  0.93925658  0.44166323     0.02400
H985        H  0.40587195  0.91136999  0.42440847     0.02900
H986        H  0.40004490  0.91608354  0.45950107     0.06400
H987        H  0.38259917  0.90696922  0.34766801     0.05400
H988        H  0.35948681  0.92971736  0.36293088    -0.00400
H989        H  0.37805965  0.90652397  0.38324488     0.01100
H990        H  0.45763344  0.01724476  0.38010152     0.04700
H991        H  0.48265389  0.99410047  0.36863244     0.06700
H992        H  0.47214029  0.99319402  0.40247290     0.07500
C993        C  0.20377812  0.94353859  0.40391597    -0.22100
C994        C  0.19654785  0.96817760  0.39335107     0.09900
C995        C  0.20270296  0.99147008  0.40763939     0.10300
C996        C  0.21663304  0.98963993  0.43192319    -0.17000
C997        C  0.22494092  0.96501568  0.44236989    -0.27400
C998        C  0.21797851  0.94152569  0.42809152     0.18600
C999        C  0.18264379  0.96906373  0.36714879     0.12600
C1000       C  0.19513405  0.01832062  0.39688744    -0.11800
H1001       H  0.22162264  0.00777943  0.44242893     0.12900
C1002       C  0.22582047  0.91421142  0.43744855    -0.22600
H1003       H  0.19869204  0.92576291  0.39280010     0.08500
C1004       C  0.19672101  0.96739534  0.34296561     0.04800
C1005       C  0.18260816  0.96773293  0.31872102    -0.19800
C1006       C  0.15417808  0.96878402  0.31742426    -0.12100
C1007       C  0.14043152  0.97226098  0.34257471     0.13600
C1008       C  0.15492721  0.97186400  0.36666688    -0.22600
C1009       C  0.22683967  0.96539193  0.34275661    -0.05600
H1010       H  0.19451063  0.96746455  0.30084929     0.15100
C1011       C  0.11056634  0.97614413  0.34537016    -0.15800
H1012       H  0.14453269  0.97382207  0.38556811     0.09400
H1013       H  0.21839474  0.89845879  0.42378753     0.07300
H1014       H  0.21709522  0.91032953  0.45744449     0.08500
H1015       H  0.24796942  0.91250303  0.43819222     0.07500
H1016       H  0.17305132  0.01964065  0.39476121     0.02400
H1017       H  0.20460370  0.02136548  0.37707443     0.02900
H1018       H  0.20179869  0.03459477  0.41030732     0.06400
H1019       H  0.23497339  0.96450103  0.32214263     0.05400
H1020       H  0.23318593  0.94714622  0.35337288    -0.00400
H1021       H  0.23566048  0.98295459  0.35288167     0.01100
H1022       H  0.10387838  0.97464785  0.36645631     0.04700
H1023       H  0.09921513  0.96085872  0.33431113     0.06700
H1024       H  0.10503742  0.99638255  0.33886992     0.07500
C1025       C  0.06107185  0.07451210  0.70417423    -0.22100
C1026       C  0.08005677  0.08000106  0.72374948     0.09900
C1027       C  0.07738596  0.10302493  0.73930683     0.10300
C1028       C  0.05370007  0.11803448  0.73741686    -0.17000
C1029       C  0.03263868  0.11124960  0.71953862    -0.27400
C1030       C  0.03814348  0.09013301  0.70089013     0.18600
C1031       C  0.10193074  0.06044627  0.72707649     0.12600
C1032       C  0.09982108  0.11224669  0.75718026    -0.11800
H1033       H  0.05180854  0.13475760  0.75070055     0.12900
C1034       C  0.02036853  0.08260023  0.67764592    -0.22600
H1035       H  0.06423021  0.05740411  0.69139924     0.08500
C1036       C  0.10060385  0.04057894  0.74673102     0.04800
C1037       C  0.11634743  0.01771455  0.74379280    -0.19800
C1038       C  0.13105710  0.01252454  0.72016285    -0.12100
C1039       C  0.13661021  0.03527566  0.70364808     0.13600
C1040       C  0.12086669  0.05817423  0.70671826    -0.22600
C1041       C  0.08016962  0.04162801  0.76889180    -0.05600
H1042       H  0.11412181  0.00230616  0.75845020     0.15100
C1043       C  0.15866326  0.03803005  0.68311726    -0.15800
H1044       H  0.12275914  0.07424255  0.69245251     0.09400
H1045       H  0.02708915  0.06407319  0.66769242     0.07300
H1046       H  0.02152087  0.09811962  0.66210157     0.08500
H1047       H  0.99952125  0.07883935  0.68390076     0.07500
H1048       H  0.11798328  0.11594006  0.74494662     0.02400
H1049       H  0.10462383  0.09712899  0.77241201     0.02900
H1050       H  0.09465988  0.13094571  0.76771501     0.06400
H1051       H  0.08107792  0.02374735  0.78177474     0.05400
H1052       H  0.05973816  0.04264177  0.76028335    -0.00400
H1053       H  0.08355576  0.05912305  0.78180198     0.01100
H1054       H  0.14981316  0.03991538  0.66287930     0.04700
H1055       H  0.17370835  0.02222673  0.68289981     0.06700
H1056       H  0.17021615  0.05641532  0.68734078     0.07500
C1057       C  0.07188090  0.94242161  0.71785952    -0.22100
C1058       C  0.08160169  0.91669962  0.71495540     0.09900
C1059       C  0.10928336  0.91281868  0.71228122     0.10300
C1060       C  0.12659069  0.93480677  0.71299263    -0.17000
C1061       C  0.11750870  0.96139616  0.71595771    -0.27400
C1062       C  0.08871699  0.96487155  0.71711580     0.18600
C1063       C  0.06193302  0.89459823  0.71211016     0.12600
C1064       C  0.12070414  0.88533740  0.70925831    -0.11800
H1065       H  0.14787630  0.93101180  0.71182165     0.12900
C1066       C  0.07316828  0.99046967  0.71463539    -0.22600
H1067       H  0.05033142  0.94506947  0.71891665     0.08500
C1068       C  0.04631287  0.88567367  0.73359277     0.04800
C1069       C  0.02642405  0.86644485  0.72916041    -0.19800
C1070       C  0.02204165  0.85433279  0.70392153    -0.12100
C1071       C  0.03744006  0.86480063  0.68183329     0.13600
C1072       C  0.05719639  0.88422194  0.68672009    -0.22600
C1073       C  0.05092452  0.89613265  0.76139905    -0.05600
H1074       H  0.01445029  0.86027898  0.74598257     0.15100
C1075       C  0.03347814  0.85815469  0.65256159    -0.15800
H1076       H  0.06884163  0.89208648  0.67024438     0.09400
H1077       H  0.06457087  0.99595326  0.73429933     0.07300
H1078       H  0.05622861  0.98776660  0.70048064     0.08500
H1079       H  0.08420481  0.00709301  0.70600804     0.07500
H1080       H  0.11315522  0.87604239  0.69063116     0.02400
H1081       H  0.11469226  0.87297600  0.72658262     0.02900
H1082       H  0.14292228  0.88563224  0.70826087     0.06400
H1083       H  0.03755592  0.88642764  0.77618035     0.05400
H1084       H  0.04703635  0.91777703  0.76207183    -0.00400
H1085       H  0.07197284  0.89232771  0.76742213     0.01100
H1086       H  0.01227058  0.85589890  0.64681347     0.04700
H1087       H  0.04536784  0.84045803  0.64708220     0.06700
H1088       H  0.04096589  0.87438471  0.63955288     0.07500
C1089       C  0.15536503  0.98155388  0.63840793    -0.22100
C1090       C  0.18176482  0.97267485  0.63790014     0.09900
C1091       C  0.19375448  0.96418146  0.66176520     0.10300
C1092       C  0.17966212  0.96652354  0.68586505    -0.17000
C1093       C  0.15390421  0.97838571  0.68750905    -0.27400
C1094       C  0.14082052  0.98350697  0.66240689     0.18600
C1095       C  0.19658977  0.97238423  0.61217630     0.12600
C1096       C  0.22140355  0.95219368  0.66180045    -0.11800
H1097       H  0.18915454  0.95851930  0.70343485     0.12900
C1098       C  0.11173329  0.99095737  0.65963353    -0.22600
H1099       H  0.14607643  0.98708853  0.61967208     0.08500
C1100       C  0.19121534  0.95354407  0.59199102     0.04800
C1101       C  0.20704445  0.95332928  0.56875785    -0.19800
C1102       C  0.22836993  0.97127368  0.56538585    -0.12100
C1103       C  0.23398326  0.98981148  0.58604539     0.13600
C1104       C  0.21740403  0.99066255  0.60861202    -0.22600
C1105       C  0.16930556  0.93323542  0.59527575    -0.05600
H1106       H  0.20291636  0.93888775  0.55324039     0.15100
C1107       C  0.25825711  0.00771875  0.58634351    -0.15800
H1108       H  0.22161146  0.00491550  0.62431057     0.09400
H1109       H  0.09883580  0.97481910  0.66717121     0.07300
H1110       H  0.10584492  0.99372042  0.63844430     0.08500
H1111       H  0.10748080  0.01000132  0.66947269     0.07500
H1112       H  0.23631647  0.96697181  0.65483261     0.02400
H1113       H  0.22182166  0.93465662  0.64837851     0.02900
H1114       H  0.22753182  0.94565527  0.68205269     0.06400
H1115       H  0.16835929  0.91943576  0.57800315     0.05400
H1116       H  0.14961282  0.94324710  0.59696216    -0.00400
H1117       H  0.17297026  0.92135324  0.61355249     0.01100
H1118       H  0.25179739  0.02872148  0.58488393     0.04700
H1119       H  0.27287238  0.00350603  0.57036409     0.06700
H1120       H  0.26925224  0.00500980  0.60542085     0.07500
C1121       C  0.17814864  0.96500443  0.78359712    -0.22100
C1122       C  0.20183521  0.97942543  0.78031955     0.09900
C1123       C  0.20532144  0.99447467  0.75708495     0.10300
C1124       C  0.18483785  0.99519961  0.73799715    -0.17000
C1125       C  0.16118710  0.97951203  0.73956697    -0.27400
C1126       C  0.15760910  0.96480150  0.76409467     0.18600
C1127       C  0.22300901  0.97828839  0.80128002     0.12600
C1128       C  0.23109760  0.00928649  0.75194591    -0.11800
H1129       H  0.18795696  0.00772163  0.72093521     0.12900
C1130       C  0.13274646  0.94937758  0.77185217    -0.22600
H1131       H  0.17577801  0.95368216  0.80183318     0.08500
C1132       C  0.22610122  0.99842504  0.82043119     0.04800
C1133       C  0.24774137  0.99749650  0.83837347    -0.19800
C1134       C  0.26559409  0.97554539  0.83985044    -0.12100
C1135       C  0.26225463  0.95547438  0.81955853     0.13600
C1136       C  0.24110027  0.95727614  0.80100129    -0.22600
C1137       C  0.20616826  0.02079929  0.82229118    -0.05600
H1138       H  0.25026947  0.01458304  0.85100115     0.15100
C1139       C  0.28018093  0.93152760  0.81675774    -0.15800
H1140       H  0.23868309  0.94214767  0.78578337     0.09400
H1141       H  0.13204095  0.94570028  0.79369828     0.07300
H1142       H  0.13291386  0.92948895  0.76254461     0.08500
H1143       H  0.11404076  0.96008433  0.76736059     0.07500
H1144       H  0.24808322  0.99510715  0.75168551     0.02400
H1145       H  0.23467000  0.02426959  0.76775731     0.02900
H1146       H  0.23077880  0.01974909  0.73245774     0.06400
H1147       H  0.21110837  0.03477059  0.83873359     0.05400
H1148       H  0.18590580  0.01256011  0.82618086    -0.00400
H1149       H  0.20567196  0.03221516  0.80341722     0.01100
H1150       H  0.27258636  0.91737964  0.80151296     0.04700
H1151       H  0.28107751  0.92033651  0.83560675     0.06700
H1152       H  0.30036130  0.93738975  0.80988386     0.07500
C1153       C  0.64501889  0.95887766  0.40243092    -0.22100
C1154       C  0.62037265  0.97122021  0.40724902     0.09900
C1155       C  0.61652864  0.98577154  0.43100254     0.10300
C1156       C  0.63750180  0.98758987  0.44955468    -0.17000
C1157       C  0.66206778  0.97490631  0.44499175    -0.27400
C1158       C  0.66603919  0.96064009  0.42094993     0.18600
C1159       C  0.59888839  0.96900678  0.38701285     0.12600
C1160       C  0.59022063  0.99917174  0.43680282    -0.11800
H1161       H  0.63447699  0.99835228  0.46805955     0.12900
C1162       C  0.69230685  0.94773820  0.41377396    -0.22600
H1163       H  0.64792942  0.94798277  0.38398409     0.08500
C1164       C  0.59724170  0.98692501  0.36553100     0.04800
C1165       C  0.57602401  0.98463291  0.34732602    -0.19800
C1166       C  0.55617065  0.96504757  0.35030072    -0.12100
C1167       C  0.55746554  0.94757686  0.37243185     0.13600
C1168       C  0.57921729  0.94941736  0.39009783    -0.22600
C1169       C  0.61776247  0.00857671  0.36200703    -0.05600
H1170       H  0.57500601  0.99816510  0.33056285     0.15100
C1171       C  0.53572700  0.92787589  0.37916728    -0.15800
H1172       H  0.58034016  0.93608206  0.40702360     0.09400
H1173       H  0.69941994  0.95563020  0.39434022     0.07300
H1174       H  0.68942328  0.92597533  0.41191251     0.08500
H1175       H  0.70835954  0.95153379  0.42855369     0.07500
H1176       H  0.57395118  0.98415406  0.43752860     0.02400
H1177       H  0.58569550  0.01382019  0.42091953     0.02900
H1178       H  0.59059526  0.00978236  0.45624046     0.06400
H1179       H  0.61340572  0.02103609  0.34427386     0.05400
H1180       H  0.63792245  0.99970798  0.35937916    -0.00400
H1181       H  0.61792252  0.02163434  0.37986791     0.01100
H1182       H  0.54362989  0.90740780  0.37713782     0.04700
H1183       H  0.51756845  0.92988066  0.36671094     0.06700
H1184       H  0.52919807  0.93097570  0.40013187     0.07500
C1185       C  0.80256939  0.95827142  0.41427992    -0.22100
C1186       C  0.80109638  0.98083364  0.39804518     0.09900
C1187       C  0.78596735  0.00280571  0.40656394     0.10300
C1188       C  0.77180796  0.00138630  0.43070411    -0.17000
C1189       C  0.77199138  0.97831659  0.44657348    -0.27400
C1190       C  0.78826128  0.95665992  0.43845014     0.18600
C1191       C  0.81414444  0.98053744  0.37141323     0.12600
C1192       C  0.78451009  0.02765943  0.38994676    -0.11800
H1193       H  0.75962627  0.01816269  0.43659541     0.12900
C1194       C  0.79090876  0.93184504  0.45496371    -0.22600
H1195       H  0.81444932  0.94155654  0.40760146     0.08500
C1196       C  0.84176064  0.98438848  0.36820191     0.04800
C1197       C  0.85270519  0.98459883  0.34240331    -0.19800
C1198       C  0.83681235  0.98249036  0.31899821    -0.12100
C1199       C  0.80920760  0.97484088  0.32309550     0.13600
C1200       C  0.79836322  0.97559783  0.34899934    -0.22600
C1201       C  0.85958538  0.98923354  0.39196764    -0.05600
H1202       H  0.87386429  0.98795385  0.34065279     0.15100
C1203       C  0.79004698  0.96379793  0.30242645    -0.15800
H1204       H  0.77727769  0.97122637  0.35196203     0.09400
H1205       H  0.80601451  0.91805523  0.44648155     0.07300
H1206       H  0.77155016  0.92104307  0.45557967     0.08500
H1207       H  0.79737114  0.93707483  0.47551723     0.07500
H1208       H  0.77540636  0.02313397  0.37024724     0.02400
H1209       H  0.80497598  0.03575348  0.38687907     0.02900
H1210       H  0.77219378  0.04321809  0.39970741     0.06400
H1211       H  0.88075002  0.99249424  0.38597530     0.05400
H1212       H  0.85890539  0.97186541  0.40553051    -0.00400
H1213       H  0.85265951  0.00712264  0.40290434     0.01100
H1214       H  0.77926487  0.94641966  0.31085692     0.04700
H1215       H  0.79934353  0.95580380  0.28431828     0.06700
H1216       H  0.77485705  0.97896949  0.29722078     0.07500
C1217       C  0.91131170  0.92669406  0.73536534    -0.22100
C1218       C  0.90776190  0.90861545  0.71465798     0.09900
C1219       C  0.88504651  0.91089616  0.69826753     0.10300
C1220       C  0.86878488  0.93361611  0.70039304    -0.17000
C1221       C  0.87451230  0.95452289  0.71867617    -0.27400
C1222       C  0.89438793  0.94865809  0.73862532     0.18600
C1223       C  0.92879480  0.88814970  0.71056264     0.12600
C1224       C  0.87750985  0.88897411  0.67920289    -0.11800
H1225       H  0.85158588  0.93478128  0.68738685     0.12900
C1226       C  0.89885713  0.96480309  0.76354233    -0.22600
H1227       H  0.92791535  0.92369421  0.74898603     0.08500
C1228       C  0.94829417  0.89117114  0.69060623     0.04800
C1229       C  0.96953433  0.87309383  0.68915512    -0.19800
C1230       C  0.97321458  0.85212720  0.70768509    -0.12100
C1231       C  0.95511134  0.85195215  0.73016954     0.13600
C1232       C  0.93242028  0.86860477  0.72995715    -0.22600
C1233       C  0.94756774  0.91428673  0.67149080    -0.05600
H1234       H  0.98349773  0.87550020  0.67300631     0.15100
C1235       C  0.95968915  0.83811163  0.75654885    -0.15800
H1236       H  0.91839257  0.86789896  0.74648323     0.09400
H1237       H  0.90659012  0.98467693  0.75874894     0.07300
H1238       H  0.91419322  0.95579971  0.77677277     0.08500
H1239       H  0.88031046  0.96542399  0.77552936     0.07500
H1240       H  0.87415887  0.87037607  0.69057396     0.02400
H1241       H  0.89364247  0.88553036  0.66443783     0.02900
H1242       H  0.85885064  0.89363618  0.66811127     0.06400
H1243       H  0.96489361  0.91411038  0.65759393     0.05400
H1244       H  0.94820130  0.93319952  0.68286260    -0.00400
H1245       H  0.92907832  0.91378001  0.65930192     0.01100
H1246       H  0.95324293  0.85110215  0.77329365     0.04700
H1247       H  0.98089431  0.83422522  0.76103266     0.06700
H1248       H  0.94745375  0.81975860  0.75764422     0.07500
C1249       C  0.83679948  0.98108845  0.64143830    -0.22100
C1250       C  0.80906894  0.98279019  0.64305038     0.09900
C1251       C  0.79698216  0.98607111  0.66805708     0.10300
C1252       C  0.81297720  0.98672671  0.69110677    -0.17000
C1253       C  0.84137909  0.98356788  0.69056277    -0.27400
C1254       C  0.85321924  0.98212254  0.66425210     0.18600
C1255       C  0.79326303  0.98152716  0.61797501     0.12600
C1256       C  0.76703086  0.98901119  0.67040910    -0.11800
H1257       H  0.80245614  0.99017135  0.70952555     0.12900
C1258       C  0.88293270  0.98226373  0.65861726    -0.22600
H1259       H  0.84569968  0.97937376  0.62176632     0.08500
C1260       C  0.78966023  0.00402338  0.60174661     0.04800
C1261       C  0.77548433  0.00160365  0.57764531    -0.19800
C1262       C  0.76459443  0.97716852  0.56922406    -0.12100
C1263       C  0.76821292  0.95455994  0.58588695     0.13600
C1264       C  0.78262101  0.95713016  0.60988686    -0.22600
C1265       C  0.80059769  0.03065548  0.61003402    -0.05600
H1266       H  0.77279867  0.01908828  0.56540160     0.15100
C1267       C  0.75664220  0.92770734  0.57920034    -0.15800
H1268       H  0.78560185  0.93997895  0.62256661     0.09400
H1269       H  0.89113308  0.00226348  0.66259881     0.07300
H1270       H  0.88742378  0.97835664  0.63726018     0.08500
H1271       H  0.89368362  0.96670560  0.66971321     0.07500
H1272       H  0.75698916  0.97106946  0.66229514     0.02400
H1273       H  0.76034726  0.00664714  0.65898316     0.02900
H1274       H  0.76054828  0.99153908  0.69146366     0.06400
H1275       H  0.79574455  0.04631908  0.59525134     0.05400
H1276       H  0.82271429  0.02958755  0.61194699    -0.00400
H1277       H  0.79186565  0.03654515  0.62953398     0.01100
H1278       H  0.76543960  0.92023681  0.56029533     0.04700
H1279       H  0.73452636  0.92909719  0.57739268     0.06700
H1280       H  0.76104543  0.91281336  0.59491081     0.07500
C1281       C  0.88698718  0.05434378  0.72009432    -0.22100
C1282       C  0.91437220  0.05034992  0.71527333     0.09900
C1283       C  0.92233581  0.02457730  0.70740960     0.10300
C1284       C  0.90484422  0.00321384  0.71094743    -0.17000
C1285       C  0.87724323  0.00652260  0.71665010    -0.27400
C1286       C  0.86812866  0.03351704  0.71827718     0.18600
C1287       C  0.93506968  0.07144026  0.72134368     0.12600
C1288       C  0.94884169  0.01879368  0.69404792    -0.11800
H1289       H  0.91302473  0.98390155  0.70668701     0.12900
C1290       C  0.83918406  0.04187278  0.71983126    -0.22600
H1291       H  0.87990821  0.07356809  0.72620394     0.08500
C1292       C  0.93275286  0.09882877  0.71545691     0.04800
C1293       C  0.95477032  0.11575591  0.72032890    -0.19800
C1294       C  0.98089377  0.10582481  0.72516463    -0.12100
C1295       C  0.98210943  0.07856789  0.73402004     0.13600
C1296       C  0.95883312  0.06299664  0.73339755    -0.22600
C1297       C  0.90853857  0.11047613  0.70190705    -0.05600
H1298       H  0.95241552  0.13672100  0.71625526     0.15100
C1299       C  0.00587485  0.06357082  0.74519089    -0.15800
H1300       H  0.95982035  0.04286922  0.74097035     0.09400
H1301       H  0.83378248  0.05274440  0.70135581     0.07300
H1302       H  0.83605898  0.05536502  0.73706823     0.08500
H1303       H  0.82514722  0.02543671  0.72240860     0.07500
H1304       H  0.96133552  0.00610784  0.70716645     0.02400
H1305       H  0.96007451  0.03702838  0.68876047     0.02900
H1306       H  0.94519009  0.00803919  0.67502238     0.06400
H1307       H  0.91311838  0.13017176  0.69308062     0.05400
H1308       H  0.89223486  0.11362805  0.71655408    -0.00400
H1309       H  0.90179302  0.09744037  0.68533250     0.01100
H1310       H  0.00033732  0.05470263  0.76472570     0.04700
H1311       H  0.02389757  0.07498469  0.74932553     0.06700
H1312       H  0.01127087  0.04716429  0.73138835     0.07500
C1313       C  0.75502433  0.99494499  0.79877073    -0.22100
C1314       C  0.77448088  0.97522039  0.80061764     0.09900
C1315       C  0.77264451  0.95631214  0.82107590     0.10300
C1316       C  0.75032613  0.95645092  0.83810290    -0.17000
C1317       C  0.73073912  0.97695114  0.83766097    -0.27400
C1318       C  0.73346042  0.99640155  0.81680506     0.18600
C1319       C  0.79706151  0.97543865  0.78130513     0.12600
C1320       C  0.79487025  0.93661278  0.82581903    -0.11800
H1321       H  0.74864176  0.93988295  0.85147267     0.12900
C1322       C  0.71442736  0.01937050  0.81300861    -0.22600
H1323       H  0.75687074  0.00951646  0.78297515     0.08500
C1324       C  0.79855667  0.95746482  0.75994944     0.04800
C1325       C  0.82045447  0.95873005  0.74245369    -0.19800
C1326       C  0.83946459  0.97980298  0.74298780    -0.12100
C1327       C  0.83872072  0.99664614  0.76640008     0.13600
C1328       C  0.81717635  0.99438566  0.78440735    -0.22600
C1329       C  0.77595512  0.93838564  0.75415122    -0.05600
H1330       H  0.82097291  0.94465267  0.72613805     0.15100
C1331       C  0.85998342  0.01589970  0.77589805    -0.15800
H1332       H  0.81620070  0.00748396  0.80159659     0.09400
H1333       H  0.69581392  0.01246328  0.80318260     0.07300
H1334       H  0.72304373  0.03478989  0.79970823     0.08500
H1335       H  0.70997391  0.02934059  0.83219004     0.07500
H1336       H  0.81383072  0.94745194  0.82981535     0.02400
H1337       H  0.79778811  0.92363387  0.80823854     0.02900
H1338       H  0.79068223  0.92371175  0.84328054     0.06400
H1339       H  0.77990086  0.92635963  0.73598809     0.05400
H1340       H  0.75719228  0.94969440  0.75081048    -0.00400
H1341       H  0.77281328  0.92454401  0.77098177     0.01100
H1342       H  0.85165376  0.03625902  0.77682613     0.04700
H1343       H  0.87854562  0.01639148  0.76446057     0.06700
H1344       H  0.86619049  0.01036819  0.79644656     0.07500
C1345       C  0.61142144  0.96135404  0.57294699    -0.22100
C1346       C  0.61469789  0.97644978  0.59622176     0.09900
C1347       C  0.63801496  0.99186990  0.59971701     0.10300
C1348       C  0.65798464  0.99126269  0.58008732    -0.17000
C1349       C  0.65507138  0.97570626  0.55701688    -0.27400
C1350       C  0.63114769  0.96111526  0.55300524     0.18600
C1351       C  0.59346778  0.97591524  0.61675691     0.12600
C1352       C  0.64169649  0.00906981  0.62406331    -0.11800
H1353       H  0.67613853  0.00277184  0.58288712     0.12900
C1354       C  0.62513378  0.94614466  0.52761609    -0.22600
H1355       H  0.59316195  0.95000367  0.57016681     0.08500
C1356       C  0.57068250  0.99224191  0.61485566     0.04800
C1357       C  0.55149534  0.99156449  0.63527559    -0.19800
C1358       C  0.55470775  0.97508866  0.65763470    -0.12100
C1359       C  0.57801433  0.95920672  0.65979310     0.13600
C1360       C  0.59681860  0.95949457  0.63901180    -0.22600
C1361       C  0.56682339  0.01055414  0.59144932    -0.05600
H1362       H  0.53377742  0.00386174  0.63370385     0.15100
C1363       C  0.58463502  0.94284873  0.68410033    -0.15800
H1364       H  0.61468860  0.94739156  0.64052813     0.09400
H1365       H  0.60615151  0.95364003  0.51889737     0.07300
H1366       H  0.62276560  0.92471898  0.53212239     0.08500
H1367       H  0.64080078  0.94844145  0.51215897     0.07500
H1368       H  0.64158245  0.99660790  0.64230300     0.02400
H1369       H  0.62517676  0.02373165  0.62529048     0.02900
H1370       H  0.66094985  0.02012127  0.62346526     0.06400
H1371       H  0.54800273  0.02213560  0.59319580     0.05400
H1372       H  0.56590298  0.99885493  0.57268831    -0.00400
H1373       H  0.58380973  0.02474772  0.59030534     0.01100
H1374       H  0.58498506  0.92150871  0.67861874     0.04700
H1375       H  0.57052235  0.94569523  0.70086235     0.06700
H1376       H  0.60474062  0.94860793  0.69164986     0.07500
C1377       C  0.39684246  0.98618031  0.63783904    -0.22100
C1378       C  0.40001526  0.96837205  0.61661666     0.09900
C1379       C  0.42273018  0.95182957  0.61569906     0.10300
C1380       C  0.44207028  0.95378992  0.63594931    -0.17000
C1381       C  0.43912122  0.97184292  0.65713334    -0.27400
C1382       C  0.41576737  0.98775687  0.65846296     0.18600
C1383       C  0.37881648  0.96692352  0.59600849     0.12600
C1384       C  0.42640190  0.93202665  0.59347289    -0.11800
H1385       H  0.45974361  0.94135996  0.63509266     0.12900
C1386       C  0.40924831  0.00556252  0.68179601    -0.22600
H1387       H  0.37903668  0.99844209  0.63867635     0.08500
C1388       C  0.35507136  0.95235055  0.60029294     0.04800
C1389       C  0.33516793  0.95216158  0.58052023    -0.19800
C1390       C  0.33847386  0.96628122  0.55662273    -0.12100
C1391       C  0.36274263  0.98016344  0.55198444     0.13600
C1392       C  0.38244770  0.98057218  0.57195174    -0.22600
C1393       C  0.35081159  0.93700106  0.62571390    -0.05600
H1394       H  0.31671418  0.94131523  0.58391618     0.15100
C1395       C  0.36912597  0.99382931  0.52597811    -0.15800
H1396       H  0.40093858  0.99139195  0.56863161     0.09400
H1397       H  0.38910088  0.00040069  0.68964198     0.07300
H1398       H  0.40904451  0.02654489  0.67512301     0.08500
H1399       H  0.42333423  0.00358656  0.69870468     0.07500
H1400       H  0.42741030  0.94249657  0.57402658     0.02400
H1401       H  0.40928307  0.91794334  0.59321159     0.02900
H1402       H  0.44511883  0.92041408  0.59593344     0.06400
H1403       H  0.33128444  0.92641809  0.62571518     0.05400
H1404       H  0.35112990  0.95071477  0.64306013    -0.00400
H1405       H  0.36695203  0.92206885  0.62807001     0.01100
H1406       H  0.37168292  0.01542719  0.52951857     0.04700
H1407       H  0.35361900  0.99092593  0.51046632     0.06700
H1408       H  0.38810323  0.98574220  0.51778635     0.07500
C1409       C  0.65137209  0.95881920  0.80460837    -0.22100
C1410       C  0.63223823  0.97853270  0.80897423     0.09900
C1411       C  0.63775117  0.99886161  0.82729556     0.10300
C1412       C  0.66200398  0.99871258  0.84135189    -0.17000
C1413       C  0.68078241  0.97755188  0.83951829    -0.27400
C1414       C  0.67566964  0.95818309  0.81900469     0.18600
C1415       C  0.60695856  0.97835895  0.79331044     0.12600
C1416       C  0.61791215  0.02089904  0.83207323    -0.11800
H1417       H  0.66617061  0.01611081  0.85310114     0.12900
C1418       C  0.69501662  0.93621850  0.81197738    -0.22600
H1419       H  0.64724156  0.94382986  0.78962431     0.08500
C1420       C  0.60481480  0.99222930  0.76897630     0.04800
C1421       C  0.58014863  0.99268113  0.75550140    -0.19800
C1422       C  0.55765712  0.97915291  0.76549168    -0.12100
C1423       C  0.55982647  0.96527303  0.78993768     0.13600
C1424       C  0.58449170  0.96505322  0.80351788    -0.22600
C1425       C  0.62870248  0.00613488  0.75702227    -0.05600
H1426       H  0.57864023  0.00293186  0.73655130     0.15100
C1427       C  0.53645573  0.95120067  0.80266722    -0.15800
H1428       H  0.58614711  0.95466810  0.82237967     0.09400
H1429       H  0.71242673  0.94440968  0.80103506     0.07300
H1430       H  0.68574848  0.92128964  0.79850854     0.08500
H1431       H  0.70173722  0.92544915  0.83000023     0.07500
H1432       H  0.59871310  0.01242092  0.83932063     0.02400
H1433       H  0.61422528  0.03191145  0.81328455     0.02900
H1434       H  0.62517126  0.03527107  0.84726912     0.06400
H1435       H  0.62364423  0.01586224  0.73780226     0.05400
H1436       H  0.64489148  0.99154360  0.75322630    -0.00400
H1437       H  0.63623390  0.02159612  0.77091150     0.01100
H1438       H  0.54083510  0.92966935  0.80408327     0.04700
H1439       H  0.51747659  0.95380308  0.79153462     0.06700
H1440       H  0.53324477  0.95918246  0.82308433     0.07500
C1441       C  0.38753672  0.96330105  0.77109567    -0.22100
C1442       C  0.38695013  0.97778210  0.79490648     0.09900
C1443       C  0.40993467  0.99196814  0.80307678     0.10300
C1444       C  0.43307773  0.99145617  0.78701550    -0.17000
C1445       C  0.43383741  0.97659053  0.76329100    -0.27400
C1446       C  0.41050264  0.96268483  0.75502199     0.18600
C1447       C  0.36228437  0.97677476  0.81140278     0.12600
C1448       C  0.41004066  0.00730618  0.82888200    -0.11800
H1449       H  0.45078353  0.00230403  0.79321304     0.12900
C1450       C  0.40847549  0.94770582  0.72901142    -0.22600
H1451       H  0.36977697  0.95251010  0.76489353     0.08500
C1452       C  0.34103030  0.99451347  0.80763865     0.04800
C1453       C  0.31814507  0.99243561  0.82380152    -0.19800
C1454       C  0.31530763  0.97285352  0.84404515    -0.12100
C1455       C  0.33628841  0.95305156  0.84534604     0.13600
C1456       C  0.35961511  0.95639638  0.82991387    -0.22600
C1457       C  0.34276099  0.01608231  0.78694232    -0.05600
H1458       H  0.30266181  0.00725903  0.82139653     0.15100
C1459       C  0.33563003  0.92707051  0.86042865    -0.15800
H1460       H  0.37584941  0.94220882  0.83159645     0.09400
H1461       H  0.39140375  0.95552351  0.71721435     0.07300
H1462       H  0.40488773  0.92636381  0.73312325     0.08500
H1463       H  0.42646951  0.94947014  0.71637318     0.07500
H1464       H  0.40614757  0.99364804  0.84581289     0.02400
H1465       H  0.39421138  0.02272435  0.82844124     0.02900
H1466       H  0.42958532  0.01726493  0.83239079     0.06400
H1467       H  0.32444767  0.02854550  0.78665957     0.05400
H1468       H  0.34525108  0.00711327  0.76684859    -0.00400
H1469       H  0.36015874  0.02914346  0.79122638     0.01100
H1470       H  0.34633988  0.91140821  0.84903321     0.04700
H1471       H  0.31549303  0.91863701  0.86295064     0.06700
H1472       H  0.34623639  0.92920553  0.87976947     0.07500
C1473       C  0.31076312  0.87257220  0.94020428    -0.22100
C1474       C  0.28815569  0.88869492  0.94120895     0.09900
C1475       C  0.26891993  0.88411267  0.96114331     0.10300
C1476       C  0.27235555  0.86277120  0.97876331    -0.17000
C1477       C  0.29542537  0.84611157  0.97864020    -0.27400
C1478       C  0.31619475  0.85349196  0.95991102     0.18600
C1479       C  0.28662165  0.91159617  0.92250663     0.12600
C1480       C  0.24535166  0.90240422  0.96478591    -0.11800
H1481       H  0.25701090  0.85942438  0.99368718     0.12900
C1482       C  0.34557753  0.84638955  0.96203273    -0.22600
H1483       H  0.32566616  0.87673255  0.92500538     0.08500
C1484       C  0.30551941  0.93232876  0.92328730     0.04800
C1485       C  0.30503523  0.95183755  0.90340712    -0.19800
C1486       C  0.28569002  0.95220735  0.88261885    -0.12100
C1487       C  0.26380312  0.93369407  0.88535738     0.13600
C1488       C  0.26597405  0.91270388  0.90376436    -0.22600
C1489       C  0.32607864  0.93427602  0.94529094    -0.05600
H1490       H  0.32067264  0.96670276  0.90366600     0.15100
C1491       C  0.23669343  0.93614221  0.87212614    -0.15800
H1492       H  0.25083050  0.89727104  0.90403361     0.09400
H1493       H  0.35265728  0.84702105  0.98293740     0.07300
H1494       H  0.35843271  0.86121335  0.95174216     0.08500
H1495       H  0.34986928  0.82742150  0.95184739     0.07500
H1496       H  0.23216432  0.90169944  0.94700966     0.02400
H1497       H  0.25258241  0.92302770  0.96786013     0.02900
H1498       H  0.23307451  0.89680151  0.98238685     0.06400
H1499       H  0.33811298  0.95276095  0.94377535     0.05400
H1500       H  0.34019126  0.91737105  0.94436726    -0.00400
H1501       H  0.31585107  0.93435815  0.96497275     0.01100
H1502       H  0.23653380  0.92650284  0.85231691     0.04700
H1503       H  0.22977724  0.95692828  0.87130349     0.06700
H1504       H  0.22104247  0.92572766  0.88392332     0.07500
C1505       C  0.27685751  0.85667702  0.07229003    -0.22100
C1506       C  0.29051542  0.88090668  0.07128592     0.09900
C1507       C  0.30494683  0.88674419  0.04775083     0.10300
C1508       C  0.30860422  0.86691757  0.02856627    -0.17000
C1509       C  0.29375234  0.84278765  0.02825936    -0.27400
C1510       C  0.27491790  0.83978011  0.04990743     0.18600
C1511       C  0.29056333  0.89942079  0.09488542     0.12600
C1512       C  0.31587259  0.91394316  0.04124760    -0.11800
H1513       H  0.32241202  0.87132567  0.01252984     0.12900
C1514       C  0.25058054  0.82197101  0.05005063    -0.22600
H1515       H  0.26644566  0.85119831  0.09031509     0.08500
C1516       C  0.26742445  0.90682598  0.10935574     0.04800
C1517       C  0.26952319  0.92624918  0.12944673    -0.19800
C1518       C  0.29216841  0.94307661  0.13195606    -0.12100
C1519       C  0.31605433  0.93371363  0.11858651     0.13600
C1520       C  0.31487083  0.91109846  0.10219636    -0.22600
C1521       C  0.23992627  0.89602159  0.10301590    -0.05600
H1522       H  0.25240919  0.92853094  0.14212022     0.15100
C1523       C  0.34307586  0.94728098  0.11953775    -0.15800
H1524       H  0.33300942  0.90388471  0.09278831     0.09400
H1525       H  0.23974064  0.82293729  0.03081403     0.07300
H1526       H  0.23562835  0.82873358  0.06501556     0.08500
H1527       H  0.25570395  0.80163569  0.05625767     0.07500
H1528       H  0.33809885  0.91348109  0.04130678     0.02400
H1529       H  0.30873891  0.92957737  0.05505163     0.02900
H1530       H  0.30893088  0.91988166  0.02105342     0.06400
H1531       H  0.22394812  0.90803309  0.11256856     0.05400
H1532       H  0.23762724  0.87561266  0.11079773    -0.00400
H1533       H  0.23629049  0.89654736  0.08116100     0.01100
H1534       H  0.35245528  0.94494625  0.13938014     0.04700
H1535       H  0.34127916  0.96829505  0.11383944     0.06700
H1536       H  0.35755115  0.93851591  0.10520346     0.07500
C1537       C  0.04487278  0.70525057  0.08909707    -0.22100
C1538       C  0.06154757  0.68353298  0.08445695     0.09900
C1539       C  0.05780886  0.66038393  0.09966879     0.10300
C1540       C  0.03821702  0.65996125  0.11980095    -0.17000
C1541       C  0.02145272  0.68203235  0.12555597    -0.27400
C1542       C  0.02381236  0.70431176  0.10771658     0.18600
C1543       C  0.08093530  0.68483243  0.06180859     0.12600
C1544       C  0.07362783  0.63553625  0.09396435    -0.11800
H1545       H  0.03554157  0.64138918  0.13001358     0.12900
C1546       C  0.00436969  0.72724515  0.10691706    -0.22600
H1547       H  0.04761917  0.72280090  0.07692303     0.08500
C1548       C  0.07211592  0.68755449  0.03531797     0.04800
C1549       C  0.09093643  0.68982490  0.01472337    -0.19800
C1550       C  0.11907365  0.68833237  0.01888296    -0.12100
C1551       C  0.12740312  0.68277387  0.04585733     0.13600
C1552       C  0.10839938  0.68265429  0.06671343    -0.22600
C1553       C  0.04265649  0.68689644  0.02834167    -0.05600
H1554       H  0.08265104  0.69137425  0.99505150     0.15100
C1555       C  0.15586041  0.67632367  0.05371765    -0.15800
H1556       H  0.11497701  0.68010288  0.08715687     0.09400
H1557       H  0.98489513  0.72061760  0.09876027     0.07300
H1558       H  0.01132730  0.74331923  0.09344934     0.08500
H1559       H  0.00176101  0.73641723  0.12665573     0.07500
H1560       H  0.09519438  0.63895841  0.09793157     0.02400
H1561       H  0.07087320  0.62961220  0.07278641     0.02900
H1562       H  0.06712729  0.61868667  0.10667985     0.06400
H1563       H  0.03927399  0.68710942  0.00643172     0.05400
H1564       H  0.03224538  0.70441110  0.03671821    -0.00400
H1565       H  0.03340563  0.66851333  0.03635435     0.01100
H1566       H  0.15857007  0.67636673  0.07571792     0.04700
H1567       H  0.17030889  0.69084418  0.04569020     0.06700
H1568       H  0.16089280  0.65599784  0.04701544     0.07500
C1569       C  0.06870646  0.71020402  0.87882380    -0.22100
C1570       C  0.07020900  0.69244477  0.90005474     0.09900
C1571       C  0.05035928  0.67297435  0.90291782     0.10300
C1572       C  0.02991419  0.67122260  0.88394796    -0.17000
C1573       C  0.02692589  0.68945261  0.86241600    -0.27400
C1574       C  0.04777846  0.70929150  0.85984075     0.18600
C1575       C  0.09175870  0.69546127  0.92022153     0.12600
C1576       C  0.04982522  0.65479742  0.92685792    -0.11800
H1577       H  0.01534231  0.65549918  0.88644173     0.12900
C1578       C  0.05010565  0.72964713  0.83785336    -0.22600
H1579       H  0.08435026  0.72506382  0.87721841     0.08500
C1580       C  0.11322219  0.67761320  0.92196037     0.04800
C1581       C  0.12948533  0.67788524  0.94482514    -0.19800
C1582       C  0.12452889  0.69519094  0.96676481    -0.12100
C1583       C  0.10667584  0.71688122  0.96130370     0.13600
C1584       C  0.08987806  0.71590534  0.93884676    -0.22600
C1585       C  0.11912423  0.65850704  0.89954691    -0.05600
H1586       H  0.14578951  0.66386862  0.94542639     0.15100
C1587       C  0.10281760  0.74068981  0.97893120    -0.15800
H1588       H  0.07446287  0.73083375  0.93631077     0.09400
H1589       H  0.06623411  0.74433203  0.84182972     0.07300
H1590       H  0.03176282  0.74164685  0.83560976     0.08500
H1591       H  0.05613754  0.71979971  0.81906552     0.07500
H1592       H  0.04864332  0.66679388  0.94542691     0.02400
H1593       H  0.06811517  0.64241900  0.92757655     0.02900
H1594       H  0.03227487  0.64123859  0.92646037     0.06400
H1595       H  0.13688881  0.64603339  0.90394138     0.05400
H1596       H  0.12320807  0.66981306  0.88098572    -0.00400
H1597       H  0.10186992  0.64510929  0.89599346     0.01100
H1598       H  0.10710219  0.75900019  0.96739575     0.04700
H1599       H  0.11596485  0.74073248  0.99615159     0.06700
H1600       H  0.08182021  0.74145833  0.98621138     0.07500
C1601       C  0.15470831  0.61387411  0.99060633    -0.22100
C1602       C  0.18235371  0.61341775  0.99410031     0.09900
C1603       C  0.19611383  0.63717224  0.99905441     0.10300
C1604       C  0.18197668  0.66110508  0.99952381    -0.17000
C1605       C  0.15394779  0.66271208  0.99440976    -0.27400
C1606       C  0.14024005  0.63775941  0.99056667     0.18600
C1607       C  0.19689736  0.58800423  0.99141412     0.12600
C1608       C  0.22584805  0.63722220  0.00446438    -0.11800
H1609       H  0.19336144  0.67834893  0.00527449     0.12900
C1610       C  0.11065629  0.63442147  0.98526939    -0.22600
H1611       H  0.14433530  0.59526910  0.98705671     0.08500
C1612       C  0.19814225  0.56947392  0.01238792     0.04800
C1613       C  0.21464937  0.54711451  0.00969417    -0.19800
C1614       C  0.22985777  0.54280790  0.98643732    -0.12100
C1615       C  0.22762564  0.56104770  0.96497818     0.13600
C1616       C  0.21105888  0.58330040  0.96779832    -0.22600
C1617       C  0.18265909  0.57370864  0.03782732    -0.05600
H1618       H  0.21607764  0.53318488  0.02608486     0.15100
C1619       C  0.24352135  0.55818252  0.93954377    -0.15800
H1620       H  0.20977772  0.59769769  0.95179430     0.09400
H1621       H  0.10117992  0.62381760  0.00223404     0.07300
H1622       H  0.10775293  0.62248297  0.96683020     0.08500
H1623       H  0.09977660  0.65286190  0.98186521     0.07500
H1624       H  0.23679937  0.62938983  0.98687897     0.02400
H1625       H  0.23022662  0.62460240  0.02206966     0.02900
H1626       H  0.23358082  0.65747927  0.00862282     0.06400
H1627       H  0.18616233  0.55748725  0.05238311     0.05400
H1628       H  0.16089162  0.57438828  0.03339120    -0.00400
H1629       H  0.18884380  0.59270538  0.04724023     0.01100
H1630       H  0.23750598  0.53976714  0.92895441     0.04700
H1631       H  0.26526645  0.55766769  0.94416533     0.06700
H1632       H  0.24004907  0.57499750  0.92567374     0.07500
C1633       C  0.18692086  0.75053678  0.01595027    -0.22100
C1634       C  0.20596414  0.74899157  0.99558340     0.09900
C1635       C  0.20221473  0.73053673  0.97494528     0.10300
C1636       C  0.17913941  0.71466069  0.97476033    -0.17000
C1637       C  0.16034916  0.71407679  0.99616108    -0.27400
C1638       C  0.16394228  0.73411962  0.01658321     0.18600
C1639       C  0.22949227  0.76725018  0.99603194     0.12600
C1640       C  0.22354696  0.72607086  0.95406996    -0.11800
H1641       H  0.17718731  0.70043817  0.95869623     0.12900
C1642       C  0.14486121  0.74096588  0.03908000    -0.22600
H1643       H  0.18986536  0.76528503  0.03148016     0.08500
C1644       C  0.23093334  0.78948896  0.97928509     0.04800
C1645       C  0.25395708  0.80550941  0.97963316    -0.19800
C1646       C  0.27445127  0.80292086  0.99925095    -0.12100
C1647       C  0.27327837  0.77902797  0.01504800     0.13600
C1648       C  0.25086631  0.76195926  0.01316998    -0.22600
C1649       C  0.20752900  0.79727176  0.96188555    -0.05600
H1650       H  0.25494633  0.82028113  0.96427139     0.15100
C1651       C  0.29468601  0.77097551  0.03475463    -0.15800
H1652       H  0.24980045  0.74430984  0.02546060     0.09400
H1653       H  0.14145731  0.76274101  0.03923370     0.07300
H1654       H  0.15390230  0.73546545  0.05853782     0.08500
H1655       H  0.12465871  0.73256844  0.03772700     0.07500
H1656       H  0.24244473  0.71996299  0.96397131     0.02400
H1657       H  0.22737680  0.74435567  0.94247820     0.02900
H1658       H  0.21779947  0.71021775  0.93975236     0.06400
H1659       H  0.21155939  0.81582437  0.95064497     0.05400
H1660       H  0.18965105  0.80069678  0.97460139    -0.00400
H1661       H  0.20278232  0.78152665  0.94721196     0.01100
H1662       H  0.28828712  0.75392498  0.04724731     0.04700
H1663       H  0.29927889  0.78737657  0.04862404     0.06700
H1664       H  0.31296728  0.76440254  0.02417677     0.07500
C1665       C  0.27942494  0.04151462  0.11598700    -0.22100
C1666       C  0.28571510  0.03680411  0.08928795     0.09900
C1667       C  0.29250492  0.01109016  0.08111644     0.10300
C1668       C  0.29282695  0.99052813  0.09986026    -0.17000
C1669       C  0.28800705  0.99467171  0.12757845    -0.27400
C1670       C  0.28016248  0.02114995  0.13523820     0.18600
C1671       C  0.28659614  0.05932017  0.07028169     0.12600
C1672       C  0.30001324  0.00537125  0.05248573    -0.11800
H1673       H  0.29715428  0.97119590  0.09200519     0.12900
C1674       C  0.27320955  0.02929494  0.16348413    -0.22600
H1675       H  0.27408811  0.06153525  0.12182320     0.08500
C1676       C  0.26482028  0.06567991  0.05387251     0.04800
C1677       C  0.26773321  0.08560101  0.03459432    -0.19800
C1678       C  0.29147960  0.10095226  0.03172648    -0.12100
C1679       C  0.31412106  0.09288926  0.04784134     0.13600
C1680       C  0.31069255  0.07289822  0.06716433    -0.22600
C1681       C  0.23841758  0.05145106  0.05673792    -0.05600
H1682       H  0.25086000  0.08963659  0.02172944     0.15100
C1683       C  0.34278945  0.10238045  0.04463635    -0.15800
H1684       H  0.32743131  0.06691615  0.07956482     0.09400
H1685       H  0.25289149  0.02226800  0.16881757     0.07300
H1686       H  0.27277951  0.05120037  0.16582089     0.08500
H1687       H  0.28820790  0.02187376  0.17791169     0.07500
H1688       H  0.31776671  0.01739727  0.04681780     0.02400
H1689       H  0.28312757  0.01038281  0.03903751     0.02900
H1690       H  0.30507804  0.98416005  0.04930685     0.06400
H1691       H  0.22325655  0.05899170  0.04242748     0.05400
H1692       H  0.23055542  0.05438784  0.07725533    -0.00400
H1693       H  0.24104642  0.02991534  0.05304843     0.01100
H1694       H  0.34564503  0.12221829  0.05347360     0.04700
H1695       H  0.34955800  0.10166399  0.02366163     0.06700
H1696       H  0.35712650  0.08952311  0.05554503     0.07500
C1697       C  0.30724385  0.04087943  0.90184768    -0.22100
C1698       C  0.28537288  0.04250511  0.91904523     0.09900
C1699       C  0.26475054  0.02364334  0.91658941     0.10300
C1700       C  0.26644827  0.00408118  0.89667645    -0.17000
C1701       C  0.28907439  0.00095679  0.87962884    -0.27400
C1702       C  0.31083919  0.01946021  0.88413012     0.18600
C1703       C  0.28626178  0.06240583  0.94117820     0.12600
C1704       C  0.24150713  0.02309558  0.93579962    -0.11800
H1705       H  0.25012322  0.99008038  0.89516406     0.12900
C1706       C  0.33935186  0.01652163  0.87430435    -0.22600
H1707       H  0.32294487  0.05562953  0.90399535     0.08500
C1708       C  0.30631771  0.06159095  0.96086037     0.04800
C1709       C  0.30732743  0.08148388  0.98035600    -0.19800
C1710       C  0.28782085  0.10186329  0.98281745    -0.12100
C1711       C  0.26555521  0.10018565  0.96438820     0.13600
C1712       C  0.26649474  0.08187103  0.94303226    -0.22600
C1713       C  0.32616626  0.03906188  0.96223965    -0.05600
H1714       H  0.32360438  0.08068735  0.99442825     0.15100
C1715       C  0.23914165  0.11459590  0.96709079    -0.15800
H1716       H  0.25087966  0.08205707  0.92800523     0.09400
H1717       H  0.35358123  0.02860456  0.88631490     0.07300
H1718       H  0.34146695  0.02422993  0.85379991     0.08500
H1719       H  0.34672497  0.99600576  0.87669511     0.07500
H1720       H  0.22932750  0.04132555  0.93373719     0.02400
H1721       H  0.24907351  0.02156101  0.95658263     0.02900
H1722       H  0.22807857  0.00589566  0.93209017     0.06400
H1723       H  0.33897047  0.04036609  0.98032246     0.05400
H1724       H  0.33965075  0.03929074  0.94469035    -0.00400
H1725       H  0.31527732  0.01984728  0.96299221     0.01100
H1726       H  0.24044336  0.13479572  0.95869398     0.04700
H1727       H  0.23171253  0.11435383  0.98786458     0.06700
H1728       H  0.22307826  0.10464381  0.95541256     0.07500
C1729       C  0.07872235  0.25657547  0.11622820    -0.22100
C1730       C  0.07860870  0.27233345  0.09335923     0.09900
C1731       C  0.05561304  0.28698476  0.08694862     0.10300
C1732       C  0.03316124  0.28518372  0.10350808    -0.17000
C1733       C  0.03131890  0.26665104  0.12475653    -0.27400
C1734       C  0.05585134  0.25368981  0.13246532     0.18600
C1735       C  0.10143713  0.27074059  0.07460940     0.12600
C1736       C  0.05368637  0.30266657  0.06134164    -0.11800
H1737       H  0.01578809  0.29673371  0.09819439     0.12900
C1738       C  0.05999682  0.23759156  0.15759574    -0.22600
H1739       H  0.09689209  0.24582137  0.12099314     0.08500
C1740       C  0.11929695  0.29187086  0.07072378     0.04800
C1741       C  0.13640022  0.29143744  0.04851499    -0.19800
C1742       C  0.13676368  0.26994124  0.03005600    -0.12100
C1743       C  0.12229677  0.24649794  0.03794130     0.13600
C1744       C  0.10413161  0.24784548  0.05926685    -0.22600
C1745       C  0.12065651  0.31460165  0.09029520    -0.05600
H1746       H  0.14896862  0.30860074  0.04566674     0.15100
C1747       C  0.12423726  0.22012165  0.02374283    -0.15800
H1748       H  0.09124101  0.23106904  0.06363794     0.09400
H1749       H  0.08162925  0.23533759  0.16224123     0.07300
H1750       H  0.05242339  0.21717298  0.15505005     0.08500
H1751       H  0.05132244  0.24724066  0.17539412     0.07500
H1752       H  0.05709106  0.28931680  0.04403036     0.02400
H1753       H  0.06874791  0.31878571  0.06089550     0.02900
H1754       H  0.03364944  0.31187302  0.05887125     0.06400
H1755       H  0.13602823  0.32945056  0.08447134     0.05400
H1756       H  0.12599268  0.30684613  0.11032434    -0.00400
H1757       H  0.10116014  0.32492023  0.09176724     0.01100
H1758       H  0.14447901  0.21164821  0.02663680     0.04700
H1759       H  0.11942853  0.22198421  0.00229575     0.06700
H1760       H  0.11002339  0.20527849  0.03199013     0.07500
C1761       C  0.11829356  0.27163427  0.93058234    -0.22100
C1762       C  0.09101533  0.27055413  0.93665402     0.09900
C1763       C  0.08316983  0.26942574  0.96358379     0.10300
C1764       C  0.10265847  0.26887869  0.98364773    -0.17000
C1765       C  0.13064429  0.26996619  0.97832716    -0.27400
C1766       C  0.13809838  0.27186506  0.95062243     0.18600
C1767       C  0.07075001  0.27059504  0.91476129     0.12600
C1768       C  0.05403158  0.27019325  0.97152908    -0.11800
H1769       H  0.09509091  0.26958271  0.00370143     0.12900
C1770       C  0.16646571  0.27418852  0.94049678    -0.22600
H1771       H  0.12427874  0.27236329  0.90979202     0.08500
C1772       C  0.06602891  0.29294432  0.89859120     0.04800
C1773       C  0.04439805  0.29273994  0.88055033    -0.19800
C1774       C  0.02541971  0.27175201  0.87988059    -0.12100
C1775       C  0.03235946  0.24809656  0.89439026     0.13600
C1776       C  0.05485398  0.24807643  0.91126031    -0.22600
C1777       C  0.08284854  0.31764410  0.90134019    -0.05600
H1778       H  0.04197464  0.30980890  0.86786382     0.15100
C1779       C  0.01628007  0.22267856  0.89343416    -0.15800
H1780       H  0.05954547  0.23054742  0.92285662     0.09400
H1781       H  0.16921046  0.29370531  0.93061303     0.07300
H1782       H  0.17033324  0.25824265  0.92567896     0.08500
H1783       H  0.18187256  0.27211740  0.95590483     0.07500
H1784       H  0.04358245  0.25223795  0.96411915     0.02400
H1785       H  0.04453762  0.28824522  0.96317081     0.02900
H1786       H  0.05133877  0.27075538  0.99352544     0.06400
H1787       H  0.07559743  0.33382362  0.88818802     0.05400
H1788       H  0.10390618  0.31336822  0.89582512    -0.00400
H1789       H  0.08208719  0.32489156  0.92226931     0.01100
H1790       H  0.01860998  0.21307767  0.87368449     0.04700
H1791       H  0.99492867  0.22624009  0.89801056     0.06700
H1792       H  0.02342096  0.20796803  0.90828496     0.07500
C1793       C  0.21363110  0.38828511  0.01851494    -0.22100
C1794       C  0.20402017  0.37711663  0.99484181     0.09900
C1795       C  0.20822855  0.39013979  0.97040335     0.10300
C1796       C  0.22289194  0.41382810  0.97004822    -0.17000
C1797       C  0.23384119  0.42471932  0.99357302    -0.27400
C1798       C  0.22862004  0.41185333  0.01833590     0.18600
C1799       C  0.19098265  0.35087103  0.99589886     0.12600
C1800       C  0.19781078  0.37861876  0.94463451    -0.11800
H1801       H  0.22639825  0.42343311  0.95103870     0.12900
C1802       C  0.23916662  0.42199789  0.04466612    -0.22600
H1803       H  0.21006127  0.37795802  0.03715023     0.08500
C1804       C  0.20606911  0.32753316  0.99444991     0.04800
C1805       C  0.19296901  0.30301537  0.99513964    -0.19800
C1806       C  0.16476423  0.30058269  0.99827694    -0.12100
C1807       C  0.14968286  0.32497637  0.99741058     0.13600
C1808       C  0.16319443  0.34944811  0.99708191    -0.22600
C1809       C  0.23618148  0.32852712  0.99209885    -0.05600
H1810       H  0.20550081  0.28580153  0.99301931     0.15100
C1811       C  0.11946281  0.32649763  0.99592202    -0.15800
H1812       H  0.15198290  0.36784975  0.99708187     0.09400
H1813       H  0.23274408  0.40933312  0.06163073     0.07300
H1814       H  0.23144879  0.44228233  0.04850627     0.08500
H1815       H  0.26139901  0.42205857  0.04448916     0.07500
H1816       H  0.17566617  0.37687525  0.94556470     0.02400
H1817       H  0.20655030  0.35865403  0.94131997     0.02900
H1818       H  0.20303250  0.39122505  0.92723210     0.06400
H1819       H  0.24511686  0.30839281  0.99115461     0.05400
H1820       H  0.24477622  0.33890688  0.00968652    -0.00400
H1821       H  0.24197339  0.33933273  0.97369122     0.01100
H1822       H  0.11209453  0.34717694  0.99792513     0.04700
H1823       H  0.10959738  0.31514536  0.01197357     0.06700
H1824       H  0.11260905  0.31966307  0.97605119     0.07500
C1825       C  0.21138959  0.22547703  0.02120871    -0.22100
C1826       C  0.20956502  0.20562043  0.00195617     0.09900
C1827       C  0.18849114  0.20627617  0.98342783     0.10300
C1828       C  0.17086017  0.22799434  0.98334620    -0.17000
C1829       C  0.17272665  0.24918246  0.00211903    -0.27400
C1830       C  0.19339676  0.24678319  0.02206611     0.18600
C1831       C  0.22939095  0.18373285  0.00285343     0.12600
C1832       C  0.18352715  0.18322710  0.96482909    -0.11800
H1833       H  0.15464666  0.22718339  0.96919057     0.12900
C1834       C  0.19839581  0.26604782  0.04463872    -0.22600
H1835       H  0.22726152  0.22427700  0.03596206     0.08500
C1836       C  0.25137450  0.18280771  0.98543351     0.04800
C1837       C  0.26997507  0.16215825  0.98790268    -0.19800
C1838       C  0.26893947  0.14302928  0.00876504    -0.12100
C1839       C  0.24829288  0.14695099  0.02863394     0.13600
C1840       C  0.22802927  0.16574566  0.02392822    -0.22600
C1841       C  0.25584791  0.20408828  0.96477069    -0.05600
H1842       H  0.28553842  0.16080213  0.97292462     0.15100
C1843       C  0.24722021  0.13530377  0.05644339    -0.15800
H1844       H  0.21186641  0.16792483  0.03825022     0.09400
H1845       H  0.21962166  0.27269104  0.04414490     0.07300
H1846       H  0.19455864  0.25607239  0.06401083     0.08500
H1847       H  0.18641655  0.28413032  0.04383054     0.07500
H1848       H  0.18003328  0.16496594  0.97669961     0.02400
H1849       H  0.20095987  0.17996683  0.95158083     0.02900
H1850       H  0.16569504  0.18651112  0.95201411     0.06400
H1851       H  0.27448981  0.20065017  0.95318814     0.05400
H1852       H  0.25765689  0.22366397  0.97479591    -0.00400
H1853       H  0.23894998  0.20479597  0.95048993     0.01100
H1854       H  0.24227861  0.15114487  0.07108581     0.04700
H1855       H  0.26624277  0.12744166  0.06393119     0.06700
H1856       H  0.23119782  0.12005435  0.05758963     0.07500
C1857       C  0.38799147  0.41404733  0.99933192    -0.22100
C1858       C  0.38369980  0.39086859  0.98450565     0.09900
C1859       C  0.36008747  0.38799847  0.96934110     0.10300
C1860       C  0.34100795  0.40836165  0.96966920    -0.17000
C1861       C  0.34500816  0.43145062  0.98486924    -0.27400
C1862       C  0.36914908  0.43462485  0.99941405     0.18600
C1863       C  0.40416126  0.36975437  0.98535366     0.12600
C1864       C  0.35510044  0.36350939  0.95279680    -0.11800
H1865       H  0.32262021  0.40603981  0.95838684     0.12900
C1866       C  0.37636846  0.45966649  0.01429432    -0.22600
H1867       H  0.40638132  0.41622433  0.01065260     0.08500
C1868       C  0.42781486  0.37132086  0.97005938     0.04800
C1869       C  0.44673526  0.35085923  0.97184886    -0.19800
C1870       C  0.44242752  0.32893558  0.98855758    -0.12100
C1871       C  0.41817927  0.32697354  0.00312220     0.13600
C1872       C  0.39961029  0.34771055  0.00168804    -0.22600
C1873       C  0.43291958  0.39444907  0.95174907    -0.05600
H1874       H  0.46511360  0.35210440  0.96039387     0.15100
C1875       C  0.41047478  0.30293234  0.01932597    -0.15800
H1876       H  0.38114014  0.34645507  0.01301179     0.09400
H1877       H  0.39596609  0.46715770  0.00697928     0.07300
H1878       H  0.37809800  0.45531556  0.03594004     0.08500
H1879       H  0.36176856  0.47590511  0.01150307     0.07500
H1880       H  0.35441595  0.34577031  0.96586799     0.02400
H1881       H  0.37143007  0.36110281  0.93795474     0.02900
H1882       H  0.33580366  0.36466422  0.94183488     0.06400
H1883       H  0.45220172  0.39235517  0.94090592     0.05400
H1884       H  0.43368824  0.41312612  0.96347583    -0.00400
H1885       H  0.41659159  0.39580202  0.93676972     0.01100
H1886       H  0.40856881  0.30857735  0.04066421     0.04700
H1887       H  0.42486854  0.28636831  0.01767233     0.06700
H1888       H  0.39086923  0.29524179  0.01221418     0.07500
C1889       C  0.34893912  0.17321776  0.02157516    -0.22100
C1890       C  0.36527189  0.17020123  0.99926004     0.09900
C1891       C  0.35818017  0.15166820  0.97957056     0.10300
C1892       C  0.33477141  0.13645676  0.98265232    -0.17000
C1893       C  0.31821772  0.13809905  0.00575221    -0.27400
C1894       C  0.32550339  0.15806304  0.02507479     0.18600
C1895       C  0.38932454  0.18739989  0.99667146     0.12600
C1896       C  0.37526522  0.14818041  0.95501749    -0.11800
H1897       H  0.32944758  0.12390384  0.96608221     0.12900
C1898       C  0.30949508  0.16393082  0.04996430    -0.22600
H1899       H  0.35452970  0.18799562  0.03631266     0.08500
C1900       C  0.38779808  0.21280748  0.98496146     0.04800
C1901       C  0.41095671  0.22862314  0.98347033    -0.19800
C1902       C  0.43543382  0.21984120  0.99397296    -0.12100
C1903       C  0.43693150  0.19440670  0.00579981     0.13600
C1904       C  0.41382886  0.17848404  0.00692191    -0.22600
C1905       C  0.36163659  0.22334717  0.97445587    -0.05600
H1906       H  0.40981753  0.24824116  0.97470641     0.15100
C1907       C  0.46257230  0.18324453  0.01698599    -0.15800
H1908       H  0.41489345  0.15899471  0.01597799     0.09400
H1909       H  0.29033754  0.17358245  0.04487027     0.07300
H1910       H  0.32003267  0.17806361  0.06337941     0.08500
H1911       H  0.30631473  0.14576171  0.06178225     0.07500
H1912       H  0.39576604  0.14205685  0.96094050     0.02400
H1913       H  0.37643855  0.16714792  0.94386355     0.02900
H1914       H  0.36705315  0.13279148  0.94139319     0.06400
H1915       H  0.36391418  0.24358699  0.96602170     0.05400
H1916       H  0.34673178  0.22430373  0.99086958    -0.00400
H1917       H  0.35391870  0.21011577  0.95848277     0.01100
H1918       H  0.46000046  0.17920549  0.03861264     0.04700
H1919       H  0.47996614  0.19668822  0.01449594     0.06700
H1920       H  0.46739495  0.16436093  0.00663329     0.07500
C1921       C  0.87804181  0.27079006  0.93058120    -0.22100
C1922       C  0.90170712  0.25601298  0.93047560     0.09900
C1923       C  0.90506500  0.23672959  0.95050709     0.10300
C1924       C  0.88826190  0.23695531  0.97282260    -0.17000
C1925       C  0.86514539  0.25304968  0.97469012    -0.27400
C1926       C  0.85850578  0.26727924  0.95055356     0.18600
C1927       C  0.92482902  0.26381408  0.91315837     0.12600
C1928       C  0.92700106  0.21615584  0.94949060    -0.11800
H1929       H  0.89455240  0.22448085  0.98857313     0.12900
C1930       C  0.83131864  0.27873691  0.94409271    -0.22600
H1931       H  0.87460375  0.28541206  0.91521828     0.08500
C1932       C  0.92392410  0.26626193  0.88515626     0.04800
C1933       C  0.94759843  0.27257830  0.87118614    -0.19800
C1934       C  0.97321907  0.27323145  0.88361961    -0.12100
C1935       C  0.97305364  0.27335123  0.91248534     0.13600
C1936       C  0.94904125  0.26870787  0.92612035    -0.22600
C1937       C  0.89879886  0.26036954  0.86955779    -0.05600
H1938       H  0.94645134  0.27448544  0.84968609     0.15100
C1939       C  0.99582531  0.27956958  0.93143072    -0.15800
H1940       H  0.94920954  0.26858505  0.94780096     0.09400
H1941       H  0.82492393  0.27163181  0.92408411     0.07300
H1942       H  0.83235710  0.30072709  0.94360872     0.08500
H1943       H  0.81542586  0.27232923  0.95789048     0.07500
H1944       H  0.94127796  0.21942221  0.96617077     0.02400
H1945       H  0.93816227  0.21638712  0.93035182     0.02900
H1946       H  0.91801904  0.19609413  0.95152870     0.06400
H1947       H  0.90267392  0.26008060  0.84772983     0.05400
H1948       H  0.88344778  0.27574234  0.87323189    -0.00400
H1949       H  0.89084871  0.24058799  0.87524311     0.01100
H1950       H  0.98907714  0.29437502  0.94644742     0.04700
H1951       H  0.01361250  0.28873227  0.92295189     0.06700
H1952       H  0.00153084  0.26123824  0.94223209     0.07500
C1953       C  0.90101506  0.22858481  0.05644482    -0.22100
C1954       C  0.90913956  0.25199974  0.06893139     0.09900
C1955       C  0.89655191  0.27579536  0.06206956     0.10300
C1956       C  0.87638754  0.27567091  0.04267952    -0.17000
C1957       C  0.86987528  0.25302913  0.02674970    -0.27400
C1958       C  0.88164661  0.22834147  0.03591976     0.18600
C1959       C  0.93267814  0.25175606  0.08706117     0.12600
C1960       C  0.90505878  0.30182442  0.07445103    -0.11800
H1961       H  0.86566776  0.29399026  0.04102755     0.12900
C1962       C  0.87457611  0.20067373  0.02613014    -0.22600
H1963       H  0.91044770  0.21016809  0.06245928     0.08500
C1964       C  0.93045644  0.25325724  0.11497557     0.04800
C1965       C  0.95371147  0.25697440  0.13040371    -0.19800
C1966       C  0.97978442  0.25771663  0.11902167    -0.12100
C1967       C  0.98148957  0.25108180  0.09089289     0.13600
C1968       C  0.95797756  0.25035524  0.07554335    -0.22600
C1969       C  0.90365869  0.25050849  0.12851305    -0.05600
H1970       H  0.95141574  0.26008991  0.15167409     0.15100
C1971       C  0.00584668  0.24205666  0.07528096    -0.15800
H1972       H  0.95932266  0.24747362  0.05410236     0.09400
H1973       H  0.86430788  0.18958033  0.04230472     0.07300
H1974       H  0.89320714  0.18979030  0.02095549     0.08500
H1975       H  0.86202154  0.19990046  0.00810200     0.07500
H1976       H  0.92662901  0.30536471  0.07041288     0.02400
H1977       H  0.90173226  0.30156777  0.09628592     0.02900
H1978       H  0.89372083  0.31886678  0.06617837     0.06400
H1979       H  0.90550833  0.25176069  0.15056751     0.05400
H1980       H  0.89481404  0.23092121  0.12343002    -0.00400
H1981       H  0.88974932  0.26626446  0.12190530     0.01100
H1982       H  0.00110293  0.22309132  0.06496184     0.04700
H1983       H  0.02382397  0.23752820  0.08688490     0.06700
H1984       H  0.01085168  0.25697085  0.05976612     0.07500
C1985       C  0.67815449  0.03110075  0.09800858    -0.22100
C1986       C  0.69620761  0.05159462  0.10291341     0.09900
C1987       C  0.71158704  0.05116793  0.12633165     0.10300
C1988       C  0.71231753  0.02779253  0.14148195    -0.17000
C1989       C  0.69806765  0.00453658  0.13371776    -0.27400
C1990       C  0.67746182  0.00841149  0.11403721     0.18600
C1991       C  0.69829841  0.07279048  0.08272254     0.12600
C1992       C  0.72625924  0.07557528  0.13586823    -0.11800
H1993       H  0.72433095  0.02808027  0.15937789     0.12900
C1994       C  0.65476711  0.98929131  0.10876541    -0.22600
H1995       H  0.66466191  0.03280670  0.08113119     0.08500
C1996       C  0.72003061  0.07398478  0.06505287     0.04800
C1997       C  0.71890636  0.09137571  0.04338183    -0.19800
C1998       C  0.69531619  0.10552103  0.03629585    -0.12100
C1999       C  0.67408217  0.10566644  0.05608831     0.13600
C2000       C  0.67611653  0.08888353  0.07837389    -0.22600
C2001       C  0.74324562  0.05490763  0.06720331    -0.05600
H2002       H  0.73575550  0.09125026  0.02987249     0.15100
C2003       C  0.64878579  0.12233419  0.05679223    -0.15800
H2004       H  0.65964901  0.08773581  0.09248510     0.09400
H2005       H  0.64140742  0.99629691  0.09252148     0.07300
H2006       H  0.64187546  0.98756487  0.12663987     0.08500
H2007       H  0.66221343  0.96985697  0.10226751     0.07500
H2008       H  0.71162166  0.09175499  0.13937834     0.02400
H2009       H  0.74102688  0.08241420  0.12091040     0.02900
H2010       H  0.73711658  0.07188165  0.15484537     0.06400
H2011       H  0.75785147  0.05758613  0.05070628     0.05400
H2012       H  0.73571295  0.03418795  0.06623783    -0.00400
H2013       H  0.75418838  0.05774071  0.08619158     0.01100
H2014       H  0.64773200  0.13932651  0.04329151     0.04700
H2015       H  0.64676301  0.13150127  0.07688059     0.06700
H2016       H  0.63102783  0.10944792  0.05349583     0.07500
C2017       C  0.70341683  0.08519853  0.93696461    -0.22100
C2018       C  0.70488201  0.05835261  0.94331897     0.09900
C2019       C  0.70534427  0.05067570  0.97023283     0.10300
C2020       C  0.70136414  0.06984114  0.99015222    -0.17000
C2021       C  0.69977233  0.09748069  0.98452040    -0.27400
C2022       C  0.70126683  0.10487680  0.95677435     0.18600
C2023       C  0.70536706  0.03861895  0.92131295     0.12600
C2024       C  0.71111272  0.02233363  0.97809996    -0.11800
H2025       H  0.69863632  0.06232426  0.01003156     0.12900
C2026       C  0.69935710  0.13310894  0.94679573    -0.22600
H2027       H  0.70342128  0.09073988  0.91605860     0.08500
C2028       C  0.68314505  0.02255015  0.91564431     0.04800
C2029       C  0.68531706  0.00302121  0.89593211    -0.19800
C2030       C  0.70760646  0.00098442  0.87835933    -0.12100
C2031       C  0.73016695  0.01807989  0.88433464     0.13600
C2032       C  0.72833616  0.03631967  0.90566867    -0.22600
C2033       C  0.65655881  0.02680840  0.92936803    -0.05600
H2034       H  0.66861675  0.98959980  0.89351354     0.15100
C2035       C  0.75710757  0.01758126  0.87045411    -0.15800
H2036       H  0.74516646  0.04910054  0.91043867     0.09400
H2037       H  0.67846063  0.14020239  0.94831069     0.07300
H2038       H  0.70471075  0.13461734  0.92533326     0.08500
H2039       H  0.71323481  0.14654131  0.95743798     0.07500
H2040       H  0.73102038  0.01648169  0.97019457     0.02400
H2041       H  0.69587350  0.00854593  0.96999738     0.02900
H2042       H  0.71154429  0.01982208  0.00011726     0.06400
H2043       H  0.64095810  0.01299747  0.92177250     0.05400
H2044       H  0.64959794  0.04736757  0.92559667    -0.00400
H2045       H  0.65819279  0.02383588  0.95117912     0.01100
H2046       H  0.75566887  0.02621015  0.85029757     0.04700
H2047       H  0.76587589  0.99749433  0.87007349     0.06700
H2048       H  0.77217960  0.03006461  0.88090212     0.07500
C2049       C  0.58532618  0.18512475  0.01827802    -0.22100
C2050       C  0.59526276  0.17635059  0.99373124     0.09900
C2051       C  0.58263151  0.18405470  0.96992741     0.10300
C2052       C  0.56106132  0.20173889  0.97110838    -0.17000
C2053       C  0.55180502  0.21205876  0.99561230    -0.27400
C2054       C  0.56374408  0.20285904  0.01967619     0.18600
C2055       C  0.62067047  0.16149722  0.99349814     0.12600
C2056       C  0.59235208  0.17404439  0.94329018    -0.11800
H2057       H  0.55194452  0.20806545  0.95256966     0.12900
C2058       C  0.55461897  0.21177277  0.04694308    -0.22600
H2059       H  0.59527733  0.17880446  0.03642172     0.08500
C2060       C  0.64523412  0.17498537  0.99273429     0.04800
C2061       C  0.66898207  0.16060064  0.99494738    -0.19800
C2062       C  0.66923927  0.13296147  0.00004697    -0.12100
C2063       C  0.64409594  0.11919017  0.99705348     0.13600
C2064       C  0.62027061  0.13386509  0.99452840    -0.22600
C2065       C  0.64641820  0.20477111  0.99001178    -0.05600
H2066       H  0.68730292  0.17152550  0.99233074     0.15100
C2067       C  0.64132594  0.08932727  0.99717823    -0.15800
H2068       H  0.60108327  0.12379211  0.99381481     0.09400
H2069       H  0.56593056  0.20180087  0.06315855     0.07300
H2070       H  0.53311788  0.20684619  0.04972620     0.08500
H2071       H  0.55789180  0.23343151  0.04927707     0.07500
H2072       H  0.59098740  0.15206977  0.94275707     0.02400
H2073       H  0.61349458  0.18006337  0.94008421     0.02900
H2074       H  0.58022563  0.18202558  0.92655721     0.06400
H2075       H  0.66735070  0.21225871  0.98985321     0.05400
H2076       H  0.63588345  0.21421712  0.00705246    -0.00400
H2077       H  0.63671017  0.21096402  0.97110987     0.01100
H2078       H  0.62001721  0.08298832  0.99761709     0.04700
H2079       H  0.65101136  0.08042798  0.01485688     0.06700
H2080       H  0.64988164  0.08095404  0.97859891     0.07500
C2081       C  0.80004678  0.20176695  0.02948355    -0.22100
C2082       C  0.78980536  0.19085665  0.00588573     0.09900
C2083       C  0.79755547  0.20193492  0.98128854     0.10300
C2084       C  0.81757064  0.22146737  0.98084662    -0.17000
C2085       C  0.82731946  0.23385320  0.00444108    -0.27400
C2086       C  0.81694471  0.22405030  0.02932118     0.18600
C2087       C  0.76763971  0.17123040  0.00784098     0.12600
C2088       C  0.78293783  0.19540625  0.95565326    -0.11800
H2089       H  0.82421040  0.22786693  0.96147402     0.12900
C2090       C  0.82131063  0.23717938  0.05614958    -0.22600
H2091       H  0.79303653  0.19404050  0.04843975     0.08500
C2092       C  0.76906046  0.14552411  0.99703663     0.04800
C2093       C  0.74571940  0.12987429  0.99614092    -0.19800
C2094       C  0.72134467  0.13766966  0.00876287    -0.12100
C2095       C  0.72302534  0.16122936  0.02490302     0.13600
C2096       C  0.74486901  0.17840765  0.02217230    -0.22600
C2097       C  0.79559733  0.13345651  0.98923075    -0.05600
H2098       H  0.74743400  0.11062289  0.98682600     0.15100
C2099       C  0.70277393  0.16993611  0.04526104    -0.15800
H2100       H  0.74450538  0.19746051  0.03227902     0.09400
H2101       H  0.83601210  0.22578070  0.06810792     0.07300
H2102       H  0.80217436  0.23769915  0.06745864     0.08500
H2103       H  0.82747416  0.25815197  0.05436258     0.07500
H2104       H  0.76134343  0.20004426  0.95804118     0.02400
H2105       H  0.78491040  0.17430153  0.95013144     0.02900
H2106       H  0.79058087  0.20726011  0.93859871     0.06400
H2107       H  0.79318165  0.11285251  0.98172640     0.05400
H2108       H  0.80878457  0.13279410  0.00705759    -0.00400
H2109       H  0.80595794  0.14503764  0.97364033     0.01100
H2110       H  0.71258646  0.17186903  0.06506387     0.04700
H2111       H  0.68651731  0.15593847  0.04753701     0.06700
H2112       H  0.69420031  0.18944677  0.03959048     0.07500
C2113       C  0.62291223  0.40060622  0.97444711    -0.22100
C2114       C  0.62454232  0.37872962  0.99159723     0.09900
C2115       C  0.64682587  0.37626468  0.00873958     0.10300
C2116       C  0.66713938  0.39560145  0.00808293    -0.17000
C2117       C  0.66558533  0.41756599  0.99091241    -0.27400
C2118       C  0.64275066  0.42040615  0.97431454     0.18600
C2119       C  0.60202541  0.35937622  0.99213555     0.12600
C2120       C  0.64886769  0.35355241  0.02811704    -0.11800
H2121       H  0.68435488  0.39358582  0.02110318     0.12900
C2122       C  0.63760035  0.44463287  0.95745301    -0.22600
H2123       H  0.60549186  0.40271491  0.96170217     0.08500
C2124       C  0.57765920  0.36534601  0.00510433     0.04800
C2125       C  0.55674033  0.34666717  0.00482335    -0.19800
C2126       C  0.55955502  0.32213686  0.99185375    -0.12100
C2127       C  0.58432622  0.31579860  0.97959451     0.13600
C2128       C  0.60510063  0.33467185  0.97961020    -0.22600
C2129       C  0.57385771  0.39130970  0.01951844    -0.05600
H2130       H  0.53793453  0.35134434  0.01455011     0.15100
C2131       C  0.59004707  0.28905135  0.96735441    -0.15800
H2132       H  0.62398981  0.32995800  0.97005407     0.09400
H2133       H  0.61785022  0.45319194  0.96288077     0.07300
H2134       H  0.63721444  0.43893222  0.93604823     0.08500
H2135       H  0.65255385  0.46059310  0.96027877     0.07500
H2136       H  0.64931925  0.33445838  0.01708519     0.02400
H2137       H  0.63133581  0.35372521  0.04174916     0.02900
H2138       H  0.66731344  0.35487384  0.04044242     0.06400
H2139       H  0.55383938  0.39255761  0.02909467     0.05400
H2140       H  0.57568488  0.40803453  0.00526128    -0.00400
H2141       H  0.58930123  0.39345154  0.03532536     0.01100
H2142       H  0.59442506  0.29145085  0.94577082     0.04700
H2143       H  0.57333527  0.27476705  0.96955923     0.06700
H2144       H  0.60780334  0.28017943  0.97724626     0.07500
C2145       C  0.81008814  0.38372268  0.01709583    -0.22100
C2146       C  0.80990812  0.36674652  0.99496569     0.09900
C2147       C  0.79638422  0.37446730  0.97155855     0.10300
C2148       C  0.78166719  0.39816263  0.97144523    -0.17000
C2149       C  0.77981004  0.41428425  0.99435792    -0.27400
C2150       C  0.79534413  0.40748693  0.01712142     0.18600
C2151       C  0.82023957  0.33934805  0.99800515     0.12600
C2152       C  0.79680691  0.35719370  0.94698035    -0.11800
H2153       H  0.77044420  0.40334405  0.95370109     0.12900
C2154       C  0.79658384  0.42490330  0.04157297    -0.22600
H2155       H  0.82081642  0.37770122  0.03488867     0.08500
C2156       C  0.84705677  0.33263895  0.99364834     0.04800
C2157       C  0.85491357  0.30604088  0.99590277    -0.19800
C2158       C  0.83676520  0.28499583  0.00224162    -0.12100
C2159       C  0.80903758  0.29257821  0.00584348     0.13600
C2160       C  0.80187955  0.31952635  0.00431109    -0.22600
C2161       C  0.86731927  0.35349139  0.98618657    -0.05600
H2162       H  0.87584597  0.30142293  0.99260288     0.15100
C2163       C  0.78556131  0.27396495  0.00965493    -0.15800
H2164       H  0.78119801  0.32541827  0.00723285     0.09400
H2165       H  0.81148956  0.41754114  0.05624530     0.07300
H2166       H  0.77687648  0.42522758  0.05177000     0.08500
H2167       H  0.80254986  0.44533756  0.03581093     0.07500
H2168       H  0.78772950  0.33758303  0.95143685     0.02400
H2169       H  0.81779527  0.35428226  0.94029973     0.02900
H2170       H  0.78542161  0.36622389  0.93027353     0.06400
H2171       H  0.88756861  0.34488972  0.98323350     0.05400
H2172       H  0.86860549  0.36862273  0.00225197    -0.00400
H2173       H  0.86121870  0.36325523  0.96730204     0.01100
H2174       H  0.76605257  0.28451675  0.00955924     0.04700
H2175       H  0.78631818  0.26436720  0.02931410     0.06700
H2176       H  0.78402631  0.25960907  0.99305317     0.07500
C2177       C  0.73438565  0.87325285  0.94041178    -0.22100
C2178       C  0.71404604  0.89228542  0.94021845     0.09900
C2179       C  0.69566540  0.89274634  0.96141121     0.10300
C2180       C  0.69670079  0.87289355  0.98083875    -0.17000
C2181       C  0.71622583  0.85234967  0.98107961    -0.27400
C2182       C  0.73700367  0.85449758  0.96119323     0.18600
C2183       C  0.71284872  0.91229969  0.91832798     0.12600
C2184       C  0.67532392  0.91469587  0.96422549    -0.11800
H2185       H  0.68162368  0.87342221  0.99621626     0.12900
C2186       C  0.76328613  0.83969823  0.96165307    -0.22600
H2187       H  0.74894177  0.87360390  0.92436612     0.08500
C2188       C  0.73255512  0.93191603  0.91521675     0.04800
C2189       C  0.72955224  0.95105366  0.89519856    -0.19800
C2190       C  0.70706618  0.95228328  0.87772957    -0.12100
C2191       C  0.68601279  0.93328409  0.88299997     0.13600
C2192       C  0.69028730  0.91296984  0.90187313    -0.22600
C2193       C  0.75638509  0.93348643  0.93366860    -0.05600
H2194       H  0.74519643  0.96568329  0.89337168     0.15100
C2195       C  0.65790123  0.93413320  0.87176787    -0.15800
H2196       H  0.67506168  0.89789391  0.90485691     0.09400
H2197       H  0.77829608  0.84905894  0.94825967     0.07300
H2198       H  0.76090727  0.81932023  0.95398365     0.08500
H2199       H  0.77247227  0.84021752  0.98174115     0.07500
H2200       H  0.66084583  0.91413873  0.94747318     0.02400
H2201       H  0.68569562  0.93420042  0.96447060     0.02900
H2202       H  0.66368519  0.91294629  0.98303413     0.06400
H2203       H  0.76912391  0.95104952  0.92937036     0.05400
H2204       H  0.76907969  0.91561774  0.93138228    -0.00400
H2205       H  0.74944747  0.93503779  0.95466875     0.01100
H2206       H  0.64383525  0.92192028  0.88378687     0.04700
H2207       H  0.65720866  0.92530072  0.85161473     0.06700
H2208       H  0.64932582  0.95430120  0.87246500     0.07500
C2209       C  0.69724436  0.87856541  0.06691229    -0.22100
C2210       C  0.72142084  0.89199038  0.06957340     0.09900
C2211       C  0.74290800  0.88552167  0.05290952     0.10300
C2212       C  0.73916908  0.86644414  0.03290983    -0.17000
C2213       C  0.71526608  0.85121129  0.03025711    -0.27400
C2214       C  0.69325010  0.85873907  0.04757142     0.18600
C2215       C  0.72234378  0.91438824  0.08857077     0.12600
C2216       C  0.76992840  0.89840635  0.05651138    -0.11800
H2217       H  0.75550611  0.86308029  0.01915191     0.12900
C2218       C  0.66458653  0.84884332  0.04593560    -0.22600
H2219       H  0.68089323  0.88449194  0.07987463     0.08500
C2220       C  0.71650930  0.94025685  0.08022663     0.04800
C2221       C  0.71306580  0.96013283  0.09938084    -0.19800
C2222       C  0.71263479  0.95483318  0.12725545    -0.12100
C2223       C  0.72165906  0.92887899  0.13514028     0.13600
C2224       C  0.72569821  0.90914412  0.11565913    -0.22600
C2225       C  0.71249118  0.94675615  0.05106915    -0.05600
H2226       H  0.71015392  0.97978882  0.09171848     0.15100
C2227       C  0.72657691  0.92070440  0.16373497    -0.15800
H2228       H  0.73079577  0.88910911  0.12159881     0.09400
H2229       H  0.65072965  0.86088004  0.05834540     0.07300
H2230       H  0.66280389  0.82866933  0.05421391     0.08500
H2231       H  0.65634459  0.85039255  0.02554886     0.07500
H2232       H  0.77749519  0.89418850  0.07690476     0.02400
H2233       H  0.76850724  0.92017152  0.05390130     0.02900
H2234       H  0.78479729  0.89074367  0.04194483     0.06400
H2235       H  0.70736420  0.96796387  0.04800422     0.05400
H2236       H  0.69584790  0.93461809  0.04283534    -0.00400
H2237       H  0.73096511  0.94257892  0.03958517     0.01100
H2238       H  0.72989758  0.89901215  0.16561512     0.04700
H2239       H  0.70923099  0.92553232  0.17658637     0.06700
H2240       H  0.74505886  0.93028646  0.17130479     0.07500
C2241       C  0.95598036  0.70602273  0.90801059    -0.22100
C2242       C  0.93979015  0.68368768  0.91131567     0.09900
C2243       C  0.94346003  0.66173610  0.89448827     0.10300
C2244       C  0.96238547  0.66310324  0.87388686    -0.17000
C2245       C  0.97779968  0.68628364  0.86853066    -0.27400
C2246       C  0.97509819  0.70763447  0.88749463     0.18600
C2247       C  0.91983657  0.68330999  0.93328081     0.12600
C2248       C  0.92817971  0.63627271  0.89896915    -0.11800
H2249       H  0.96547197  0.64505227  0.86288340     0.12900
C2250       C  0.99156966  0.73272564  0.88729268    -0.22600
H2251       H  0.95358220  0.72255944  0.92167694     0.08500
C2252       C  0.92772147  0.68117172  0.96003694     0.04800
C2253       C  0.90819216  0.68133967  0.98007398    -0.19800
C2254       C  0.88038566  0.68469775  0.97473016    -0.12100
C2255       C  0.87274727  0.68279817  0.94708881     0.13600
C2256       C  0.89257235  0.68357633  0.92708790    -0.22600
C2257       C  0.95680203  0.67779814  0.96752086    -0.05600
H2258       H  0.91533874  0.67773781  0.99999874     0.15100
C2259       C  0.84423227  0.67993999  0.93762157    -0.15800
H2260       H  0.88680241  0.68392073  0.90623062     0.09400
H2261       H  0.00582399  0.73250205  0.90429880     0.07300
H2262       H  0.97836324  0.75028901  0.88948060     0.08500
H2263       H  0.00267355  0.73564080  0.86869806     0.07500
H2264       H  0.90640733  0.63967937  0.89632755     0.02400
H2265       H  0.93197662  0.62890676  0.91949746     0.02900
H2266       H  0.93422767  0.62049832  0.88471035     0.06400
H2267       H  0.95951969  0.67539442  0.98938801     0.05400
H2268       H  0.96848869  0.69546034  0.96128710    -0.00400
H2269       H  0.96503533  0.65990758  0.95753499     0.01100
H2270       H  0.84282181  0.67976025  0.91549975     0.04700
H2271       H  0.83186934  0.69666392  0.94434978     0.06700
H2272       H  0.83579972  0.66078930  0.94430547     0.07500
C2273       C  0.80494316  0.62908754  0.99520790    -0.22100
C2274       C  0.82116125  0.60692292  0.99882715     0.09900
C2275       C  0.84900835  0.61025629  0.00015072     0.10300
C2276       C  0.85989050  0.63590079  0.99882257    -0.17000
C2277       C  0.84391369  0.65917805  0.99655917    -0.27400
C2278       C  0.81548960  0.65486611  0.99271406     0.18600
C2279       C  0.80821693  0.58035283  0.99936339     0.12600
C2280       C  0.86726718  0.58678805  0.00379924    -0.11800
H2281       H  0.88138334  0.63789001  0.00082851     0.12900
C2282       C  0.79475517  0.67471138  0.98341087    -0.22600
H2283       H  0.78354152  0.62594497  0.99295283     0.08500
C2284       C  0.79302562  0.57183953  0.02146412     0.04800
C2285       C  0.77841891  0.54806325  0.01976444    -0.19800
C2286       C  0.77826698  0.53257320  0.99631695    -0.12100
C2287       C  0.79463563  0.54066196  0.97457196     0.13600
C2288       C  0.80930236  0.56444233  0.97645015    -0.22600
C2289       C  0.79204660  0.58799730  0.04677295    -0.05600
H2290       H  0.76625389  0.54211144  0.03663706     0.15100
C2291       C  0.79697377  0.52459030  0.94928587    -0.15800
H2292       H  0.82107870  0.57116088  0.95957886     0.09400
H2293       H  0.78006335  0.67837514  0.99963248     0.07300
H2294       H  0.78369956  0.66635115  0.96606644     0.08500
H2295       H  0.80236612  0.69367048  0.97607232     0.07500
H2296       H  0.86524971  0.57303640  0.98660522     0.02400
H2297       H  0.86189482  0.57615664  0.02244393     0.02900
H2298       H  0.88860651  0.59288599  0.00520690     0.06400
H2299       H  0.77971069  0.57822621  0.06237852     0.05400
H2300       H  0.78320841  0.60775811  0.04270732    -0.00400
H2301       H  0.81263080  0.59062431  0.05475072     0.01100
H2302       H  0.77758346  0.52442485  0.93848249     0.04700
H2303       H  0.80314675  0.50400601  0.95413404     0.06700
H2304       H  0.81217370  0.53300844  0.93548624     0.07500
C2305       C  0.91025367  0.70596657  0.05609608    -0.22100
C2306       C  0.90735344  0.68487764  0.07368040     0.09900
C2307       C  0.88579462  0.66727049  0.07028463     0.10300
C2308       C  0.86981018  0.66920100  0.04721766    -0.17000
C2309       C  0.87512966  0.68795545  0.02660311    -0.27400
C2310       C  0.89430331  0.70832219  0.03324641     0.18600
C2311       C  0.92802597  0.68165461  0.09471063     0.12600
C2312       C  0.87923361  0.64694507  0.09132972    -0.11800
H2313       H  0.85302944  0.65574894  0.04569630     0.12900
C2314       C  0.90062122  0.73219158  0.01654978    -0.22600
H2315       H  0.92604046  0.72036184  0.05974113     0.08500
C2316       C  0.94912625  0.66362993  0.09156460     0.04800
C2317       C  0.96996614  0.66342440  0.11022444    -0.19800
C2318       C  0.97217143  0.68207597  0.13155710    -0.12100
C2319       C  0.95049887  0.70102233  0.13385852     0.13600
C2320       C  0.92888077  0.69980492  0.11570120    -0.22600
C2321       C  0.95067946  0.64564798  0.06749355    -0.05600
H2322       H  0.98549538  0.64869726  0.10758883     0.15100
C2323       C  0.94867852  0.72359259  0.15363537    -0.15800
H2324       H  0.91262423  0.71397461  0.11716757     0.09400
H2325       H  0.92213258  0.73210683  0.01087389     0.07300
H2326       H  0.89624636  0.75053271  0.02803237     0.08500
H2327       H  0.88919708  0.73278645  0.99832511     0.07500
H2328       H  0.87482338  0.65716643  0.11046781     0.02400
H2329       H  0.89631470  0.63329447  0.09440369     0.02900
H2330       H  0.86147897  0.63483847  0.08577029     0.06400
H2331       H  0.96908995  0.63332266  0.06766200     0.05400
H2332       H  0.95094003  0.65776812  0.04900220    -0.00400
H2333       H  0.93323098  0.63207117  0.06685592     0.01100
H2334       H  0.93337836  0.73843386  0.14771342     0.04700
H2335       H  0.96743382  0.73508387  0.15501220     0.06700
H2336       H  0.94174882  0.71605243  0.17316194     0.07500
C2337       C  0.81886103  0.75266609  0.98524022    -0.22100
C2338       C  0.79991104  0.75070752  0.00554872     0.09900
C2339       C  0.80133239  0.72947943  0.02355385     0.10300
C2340       C  0.82223695  0.71108848  0.02113659    -0.17000
C2341       C  0.84085771  0.71130427  0.99958629    -0.27400
C2342       C  0.83954559  0.73400225  0.98186932     0.18600
C2343       C  0.77816986  0.77074428  0.00656099     0.12600
C2344       C  0.77954007  0.72475658  0.04389430    -0.11800
H2345       H  0.82250726  0.69473297  0.03509595     0.12900
C2346       C  0.85853578  0.74160343  0.95947469    -0.22600
H2347       H  0.81746617  0.76939647  0.97169090     0.08500
C2348       C  0.77804476  0.79139120  0.02536038     0.04800
C2349       C  0.75673944  0.80949416  0.02553850    -0.19800
C2350       C  0.73688898  0.81024738  0.00511025    -0.12100
C2351       C  0.73767893  0.78889398  0.98594915     0.13600
C2352       C  0.75802679  0.76966161  0.98730656    -0.22600
C2353       C  0.80108278  0.79524727  0.04451493    -0.05600
H2354       H  0.75599691  0.82255314  0.04245639     0.15100
C2355       C  0.71769652  0.78558911  0.96348837    -0.15800
H2356       H  0.75846811  0.75359261  0.97290075     0.09400
H2357       H  0.86537308  0.76236186  0.96265508     0.07300
H2358       H  0.84784943  0.74089157  0.94005193     0.08500
H2359       H  0.87709958  0.73033421  0.95765534     0.07500
H2360       H  0.76004968  0.72229253  0.03350797     0.02400
H2361       H  0.77795458  0.74158464  0.05798670     0.02900
H2362       H  0.78326094  0.70655282  0.05577740     0.06400
H2363       H  0.79827031  0.81304287  0.05729644     0.05400
H2364       H  0.81990883  0.79799885  0.03304819    -0.00400
H2365       H  0.80341840  0.77791008  0.05780172     0.01100
H2366       H  0.72509374  0.77165544  0.94797189     0.04700
H2367       H  0.71385642  0.80463616  0.95324764     0.06700
H2368       H  0.69882377  0.77689950  0.97116140     0.07500
C2369       C  0.62312145  0.54647779  0.00154230    -0.22100
C2370       C  0.62935925  0.57023654  0.98840282     0.09900
C2371       C  0.65480354  0.57343709  0.97659521     0.10300
C2372       C  0.67344427  0.55269125  0.97809279    -0.17000
C2373       C  0.66730517  0.52892855  0.99132179    -0.27400
C2374       C  0.64168996  0.52564146  0.00299468     0.18600
C2375       C  0.60882787  0.59140582  0.98699356     0.12600
C2376       C  0.66215277  0.59862793  0.96220536    -0.11800
H2377       H  0.69304241  0.55509812  0.96908575     0.12900
C2378       C  0.63280637  0.50021015  0.01613316    -0.22600
H2379       H  0.60345405  0.54404523  0.01039564     0.08500
C2380       C  0.58766104  0.59031129  0.96835974     0.04800
C2381       C  0.56845576  0.61063965  0.96807508    -0.19800
C2382       C  0.56998153  0.63203742  0.98598719    -0.12100
C2383       C  0.59195484  0.63367894  0.00384436     0.13600
C2384       C  0.61080950  0.61308080  0.00440061    -0.22600
C2385       C  0.58540207  0.56770773  0.94879858    -0.05600
H2386       H  0.55178938  0.60948544  0.95425213     0.15100
C2387       C  0.59685813  0.65721451  0.02182939    -0.15800
H2388       H  0.62743913  0.61410189  0.01829063     0.09400
H2389       H  0.61454976  0.49264561  0.00597961     0.07300
H2390       H  0.62800959  0.50407933  0.03742001     0.08500
H2391       H  0.64800849  0.48428419  0.01518311     0.07500
H2392       H  0.66128963  0.61566940  0.97622299     0.02400
H2393       H  0.64793689  0.60204744  0.94552775     0.02900
H2394       H  0.68271191  0.59770902  0.95379661     0.06400
H2395       H  0.56789245  0.57008622  0.93534756     0.05400
H2396       H  0.58303532  0.54870494  0.95970588    -0.00400
H2397       H  0.60374441  0.56679953  0.93630499     0.01100
H2398       H  0.59557674  0.65090524  0.04300968     0.04700
H2399       H  0.58266256  0.67371772  0.01850984     0.06700
H2400       H  0.61722509  0.66524901  0.01800776     0.07500
C2401       C  0.43183261  0.58662848  0.99102533    -0.22100
C2402       C  0.40921451  0.59432742  0.97646254     0.09900
C2403       C  0.40903927  0.61869320  0.96278091     0.10300
C2404       C  0.43164748  0.63505491  0.96413263    -0.17000
C2405       C  0.45407684  0.62776301  0.97930087    -0.27400
C2406       C  0.45444958  0.60301703  0.99252468     0.18600
C2407       C  0.38573583  0.57667480  0.97620733     0.12600
C2408       C  0.38488333  0.62753852  0.94715547    -0.11800
H2409       H  0.43142932  0.65412089  0.95414240     0.12900
C2410       C  0.47843200  0.59294463  0.00769641    -0.22600
H2411       H  0.43181043  0.56768855  0.00125941     0.08500
C2412       C  0.38382098  0.55535667  0.95812473     0.04800
C2413       C  0.36152057  0.53852847  0.95937235    -0.19800
C2414       C  0.34126999  0.54259399  0.97838014    -0.12100
C2415       C  0.34268295  0.56481867  0.99566211     0.13600
C2416       C  0.36520105  0.58133734  0.99459743    -0.22600
C2417       C  0.40548680  0.55021880  0.93785681    -0.05600
H2418       H  0.36038466  0.52155467  0.94610828     0.15100
C2419       C  0.32066204  0.57227696  0.01486059    -0.15800
H2420       H  0.36669142  0.59813363  0.00807257     0.09400
H2421       H  0.48452519  0.57339913  0.99947411     0.07300
H2422       H  0.47311668  0.59046622  0.02906394     0.08500
H2423       H  0.49606692  0.60622141  0.00627530     0.07500
H2424       H  0.36733869  0.62924188  0.96065232     0.02400
H2425       H  0.38035642  0.61287454  0.93122851     0.02900
H2426       H  0.38817777  0.64714654  0.93761369     0.06400
H2427       H  0.40077591  0.53275116  0.92515572     0.05400
H2428       H  0.42476399  0.54639106  0.94818128    -0.00400
H2429       H  0.40777223  0.56775453  0.92467233     0.01100
H2430       H  0.32798453  0.57024523  0.03567978     0.04700
H2431       H  0.30225202  0.56026304  0.01238094     0.06700
H2432       H  0.31479844  0.59323617  0.01143838     0.07500
C2433       C  0.39676306  0.73606886  0.99818174    -0.22100
C2434       C  0.39708900  0.76266094  0.99027487     0.09900
C2435       C  0.42140669  0.77416172  0.98157610     0.10300
C2436       C  0.44486879  0.75865557  0.98089654    -0.17000
C2437       C  0.44464321  0.73211657  0.98935860    -0.27400
C2438       C  0.42010750  0.72063298  0.99785272     0.18600
C2439       C  0.37207265  0.77841864  0.99321683     0.12600
C2440       C  0.42254514  0.80279305  0.97316245    -0.11800
H2441       H  0.46355704  0.76740906  0.97426319     0.12900
C2442       C  0.41742570  0.69205098  0.00624287    -0.22600
H2443       H  0.37810287  0.72732867  0.00495652     0.08500
C2444       C  0.35108368  0.77712324  0.97462456     0.04800
C2445       C  0.32774524  0.79211618  0.97893749    -0.19800
C2446       C  0.32449798  0.80931957  0.00125641    -0.12100
C2447       C  0.34581477  0.80906947  0.02087781     0.13600
C2448       C  0.36898729  0.79387076  0.01604934    -0.22600
C2449       C  0.35361600  0.76044082  0.94980713    -0.05600
H2450       H  0.31210045  0.79122588  0.96397370     0.15100
C2451       C  0.34604258  0.82384118  0.04717977    -0.15800
H2452       H  0.38526100  0.79395026  0.03039265     0.09400
H2453       H  0.40258811  0.68191908  0.99321294     0.07300
H2454       H  0.41029763  0.69109809  0.02720831     0.08500
H2455       H  0.43634890  0.68087442  0.00490228     0.07500
H2456       H  0.41670181  0.81574862  0.99011250     0.02400
H2457       H  0.40856881  0.80612175  0.95626547     0.02900
H2458       H  0.44298988  0.80863395  0.96667633     0.06400
H2459       H  0.33555131  0.76191904  0.93696709     0.05400
H2460       H  0.35633933  0.73930996  0.95534034    -0.00400
H2461       H  0.37117852  0.76717102  0.93800963     0.01100
H2462       H  0.32759201  0.82048726  0.05885236     0.04700
H2463       H  0.35023977  0.84509709  0.04386224     0.06700
H2464       H  0.36246083  0.81703187  0.06045683     0.07500
C2465       C  0.59150414  0.77646046  0.01362862    -0.22100
C2466       C  0.61460395  0.76905236  0.99959817     0.09900
C2467       C  0.61437031  0.74611647  0.98350871     0.10300
C2468       C  0.59071997  0.73134840  0.98131547    -0.17000
C2469       C  0.56747177  0.73868803  0.99523207    -0.27400
C2470       C  0.56782281  0.76150909  0.01168357     0.18600
C2471       C  0.63882434  0.78577969  0.00148020     0.12600
C2472       C  0.63918085  0.73705936  0.96897870    -0.11800
H2473       H  0.59053009  0.71355583  0.96912131     0.12900
C2474       C  0.54357036  0.77114722  0.02669967    -0.22600
H2475       H  0.59189081  0.79418094  0.02591319     0.08500
C2476       C  0.64418200  0.80540689  0.98243633     0.04800
C2477       C  0.66840919  0.81931776  0.98358078    -0.19800
C2478       C  0.68737995  0.81553170  0.00443743    -0.12100
C2479       C  0.68157480  0.79486368  0.02338967     0.13600
C2480       C  0.65740662  0.78064263  0.02155503    -0.22600
C2481       C  0.62428004  0.81158722  0.96066242    -0.05600
H2482       H  0.67232936  0.83251503  0.96719734     0.15100
C2483       C  0.69993977  0.78752141  0.04622721    -0.15800
H2484       H  0.65303477  0.76500432  0.03574407     0.09400
H2485       H  0.53896038  0.79179764  0.02057400     0.07300
H2486       H  0.54778750  0.77090410  0.04845518     0.08500
H2487       H  0.52543138  0.75905563  0.02288892     0.07500
H2488       H  0.65543533  0.73317285  0.98357142     0.02400
H2489       H  0.64593043  0.75256500  0.95479225     0.02900
H2490       H  0.63554756  0.71854200  0.95749184     0.06400
H2491       H  0.63139939  0.82778127  0.94742362     0.05400
H2492       H  0.60503903  0.81794848  0.96972167    -0.00400
H2493       H  0.62071589  0.79375895  0.94815211     0.01100
H2494       H  0.68960284  0.77484309  0.06114210     0.04700
H2495       H  0.70703833  0.80532732  0.05708321     0.06700
H2496       H  0.71708403  0.77574131  0.03879811     0.07500
loop_ 
_geom_bond_atom_site_label_1 
_geom_bond_atom_site_label_2 
_geom_bond_distance 
_geom_bond_site_symmetry_2 
_ccdc_geom_bond_type 
O1           Ni9   1.918       .  S
O1           C11   1.281   1_554  A
O2           Ni9   1.913       .  S
O2           C12   1.281   1_554  A
O3           Ni9   1.915       .  S
O3           C13   1.281   1_554  A
O4           Ni9   1.921       .  S
O4           C14   1.282   1_554  A
O5          Ni10   1.929       .  S
O5           C14   1.283       .  A
O6          Ni10   1.925       .  S
O6           C13   1.283       .  A
O7          Ni10   1.906       .  S
O7           C12   1.279       .  A
O8          Ni10   1.909       .  S
O8           C11   1.280       .  A
Ni9         Ni10   2.391   1_554  S
C11        C2469   1.472       .  S
C12        C2405   1.466       .  S
C13        C2382   1.479       .  S
C14        C2437   1.483       .  S
C15        C2254   1.581       .  S
C15        C2277   1.587       .  S
C15        C2309   1.597   1_556  S
C15        C2341   1.575       .  S
C16        C2181   1.590   1_554  S
C16        C2213   1.586       .  S
C16        C2350   1.582       .  S
C16        C2478   1.570       .  S
O17         Ni25   1.921       .  S
O17          C27   1.282       .  A
O18         Ni25   1.925       .  S
O18          C28   1.283       .  A
O19         Ni25   1.916       .  S
O19          C29   1.280       .  A
O20         Ni25   1.920       .  S
O20          C30   1.282       .  A
O21         Ni26   1.922       .  S
O21          C30   1.282   1_554  A
O22         Ni26   1.921       .  S
O22          C29   1.282   1_554  A
O23         Ni26   1.918       .  S
O23          C28   1.281   1_554  A
O24         Ni26   1.920       .  S
O24          C27   1.282   1_554  A
Ni25        Ni26   2.384   1_556  S
C27        C2286   1.495       .  S
C28        C2117   1.483       .  S
C29        C2373   1.475       .  S
C30        C2149   1.494       .  S
C31        C1998   1.584       .  S
C31        C2021   1.585   1_554  S
C31        C2062   1.565       .  S
C31        C2094   1.588       .  S
C32        C1925   1.600   1_554  S
C32        C1957   1.607       .  S
C32        C2085   1.566       .  S
C32        C2158   1.593       .  S
O33         Ni41   1.918       .  S
O33          C43   1.281   1_554  A
O34         Ni41   1.920       .  S
O34          C44   1.281   1_554  A
O35         Ni41   1.915       .  S
O35          C45   1.281   1_554  A
O36         Ni41   1.914       .  S
O36          C46   1.280   1_554  A
O37         Ni42   1.912       .  S
O37          C46   1.282       .  A
O38         Ni42   1.913       .  S
O38          C45   1.280       .  A
O39         Ni42   1.925       .  S
O39          C44   1.283       .  A
O40         Ni42   1.924       .  S
O40          C43   1.282       .  A
Ni41        Ni42   2.387   1_554  S
C43        C1902   1.476       .  S
C44        C2126   1.481       .  S
C45        C1870   1.473       .  S
C46        C2053   1.492       .  S
C47        C1742   1.583       .  S
C47        C1765   1.584   1_554  S
C47        C1806   1.583   1_554  S
C47        C1829   1.583       .  S
C48        C1678   1.576       .  S
C48        C1710   1.595   1_554  S
C48        C1838   1.577       .  S
C48        C1893   1.585       .  S
C49        C1550   1.583   1_556  S
C49        C1582   1.591       .  S
C49        C1605   1.587       .  S
C49        C1637   1.589       .  S
C50        C1477   1.599   1_554  S
C50        C1509   1.589       .  S
C50        C1646   1.595   1_554  S
C50        C2446   1.577       .  S
O51         Ni59   1.917       .  S
O51          C61   1.282   1_554  A
O52         Ni59   1.916       .  S
O52          C62   1.281   1_554  A
O53         Ni59   1.907       .  S
O53          C63   1.279   1_554  A
O54         Ni59   1.909       .  S
O54          C64   1.279   1_554  A
O55         Ni60   1.914       .  S
O55          C64   1.282       .  A
O56         Ni60   1.913       .  S
O56          C63   1.281       .  A
O57         Ni60   1.914       .  S
O57          C62   1.280       .  A
O58         Ni60   1.914       .  S
O58          C61   1.280       .  A
Ni59        Ni60   2.386   1_554  S
C61        C1614   1.486       .  S
C62        C1861   1.474       .  S
C63        C2414   1.470       .  S
C64        C1797   1.490       .  S
O65         Ni73   1.921       .  S
O65          C75   1.281       .  A
O66         Ni73   1.916       .  S
O66          C76   1.281       .  A
O67         Ni73   1.916       .  S
O67          C77   1.281       .  A
O68         Ni73   1.920       .  S
O68          C78   1.282       .  A
O69         Ni74   1.923       .  S
O69          C78   1.282       .  A
O70         Ni74   1.914       .  S
O70          C77   1.281       .  A
O71         Ni74   1.918       .  S
O71          C76   1.282       .  A
O72         Ni74   1.922       .  S
O72          C75   1.282       .  A
Ni73        Ni74   2.389       .  S
C75        C1422   1.481       .  S
C76        C1381   1.478       .  S
C77        C1358   1.476       .  S
C78        C1445   1.481       .  S
C79        C1221   1.588       .  S
C79        C1253   1.599       .  S
C79        C1285   1.572   1_565  S
C79        C1326   1.586       .  S
C80        C1317   1.577       .  S
C80        C1413   1.582       .  S
C80        C2030   1.588   1_565  S
C80        C2190   1.592       .  S
O81         Ni89   1.925       .  S
O81          C91   1.282       .  A
O82         Ni89   1.922       .  S
O82          C92   1.282       .  A
O83         Ni89   1.912       .  S
O83          C93   1.280       .  A
O84         Ni89   1.918       .  S
O84          C94   1.280       .  A
O85         Ni90   1.923       .  S
O85          C94   1.284       .  A
O86         Ni90   1.922       .  S
O86          C93   1.282       .  A
O87         Ni90   1.908       .  S
O87          C92   1.279       .  A
O88         Ni90   1.916       .  S
O88          C91   1.282       .  A
Ni89        Ni90   2.385       .  S
C91        C1189   1.495       .  S
C92        C1349   1.472       .  S
C93        C1157   1.473       .  S
C94        C1262   1.499       .  S
C95        C1038   1.572   1_565  S
C95        C1061   1.582       .  S
C95        C1093   1.583       .  S
C95        C1125   1.593       .  S
C96        C1134   1.589       .  S
C96        C1454   1.578       .  S
C96        C1486   1.576       .  S
C96        C1701   1.597   1_565  S
O97        Ni105   1.921       .  S
O97         C107   1.282       .  A
O98        Ni105   1.917       .  S
O98         C108   1.281       .  A
O99        Ni105   1.917       .  S
O99         C109   1.281       .  A
O100       Ni105   1.923       .  S
O100        C110   1.282       .  A
O101       Ni106   1.918       .  S
O101        C110   1.283       .  A
O102       Ni106   1.918       .  S
O102        C109   1.281       .  A
O103       Ni106   1.911       .  S
O103        C108   1.280       .  A
O104       Ni106   1.918       .  S
O104        C107   1.281       .  A
Ni105      Ni106   2.386       .  S
C107       C1102   1.484       .  S
C108        C965   1.472       .  S
C109       C1390   1.476       .  S
C110        C997   1.500       .  S
C111        C910   1.579       .  S
C111        C933   1.596       .  S
C111       C1518   1.603       .  S
C111       C1669   1.579       .  S
C112        C837   1.589       .  S
C112        C878   1.586       .  S
C112        C942   1.598       .  S
C112       C1006   1.579       .  S
C113        C782   1.581       .  S
C113        C805   1.581       .  S
C113       C1989   1.586   1_565  S
C113       C2222   1.577       .  S
C114        C709   1.591       .  S
C114        C741   1.571   1_565  S
C114        C814   1.581       .  S
C114       C1198   1.573       .  S
O115       Ni123   1.927       .  S
O115        C125   1.282       .  A
O116       Ni123   1.922       .  S
O116        C126   1.283       .  A
O117       Ni123   1.910       .  S
O117        C127   1.280       .  A
O118       Ni123   1.914       .  S
O118        C128   1.280       .  A
O119       Ni124   1.924       .  S
O119        C128   1.282       .  A
O120       Ni124   1.917       .  S
O120        C127   1.282       .  A
O121       Ni124   1.911       .  S
O121        C126   1.280       .  A
O122       Ni124   1.915       .  S
O122        C125   1.280       .  A
Ni123      Ni124   2.390       .  S
C125        C901   1.477       .  S
C126       C1166   1.480       .  S
C127        C974   1.476       .  S
C128        C773   1.476       .  S
O129       Ni137   1.919       .  S
O129        C139   1.282   1_655  A
O130       Ni137   1.915       .  S
O130        C140   1.282   1_655  A
O131       Ni137   1.920       .  S
O131        C141   1.282   1_655  A
O132       Ni137   1.921       .  S
O132        C142   1.281   1_655  A
O133       Ni138   1.914       .  S
O133        C142   1.280       .  A
O134       Ni138   1.913       .  S
O134        C141   1.280       .  A
O135       Ni138   1.921       .  S
O135        C140   1.281       .  A
O136       Ni138   1.919       .  S
O136        C139   1.282       .  A
Ni137      Ni138   2.384   1_655  S
C139        C677   1.495       .  S
C140        C613   1.492       .  S
C141        C581   1.481       .  S
C142        C645   1.475       .  S
C143        C517   1.575       .  S
C143        C549   1.579   1_655  S
C143       C1070   1.578   1_655  S
C143       C1230   1.582       .  S
C144        C558   1.583       .  S
C144        C654   1.593   1_655  S
C144       C1573   1.594   1_655  S
C144       C2245   1.580       .  S
O145       Ni153   1.916       .  S
O145        C155   1.281       .  A
O146       Ni153   1.916       .  S
O146        C156   1.281       .  A
O147       Ni153   1.918       .  S
O147        C157   1.281       .  A
O148       Ni153   1.919       .  S
O148        C158   1.281       .  A
O149       Ni154   1.917       .  S
O149        C158   1.281   1_655  A
O150       Ni154   1.916       .  S
O150        C157   1.281   1_655  A
O151       Ni154   1.915       .  S
O151        C156   1.281   1_655  A
O152       Ni154   1.917       .  S
O152        C155   1.281   1_655  A
Ni153      Ni154   2.390   1_455  S
C155        C485   1.481       .  S
C156        C622   1.472       .  S
C157        C453   1.474       .  S
C158        C526   1.478       .  S
C159        C389   1.600   1_655  S
C159        C421   1.582   1_655  S
C159       C1541   1.582   1_655  S
C159       C2318   1.592       .  S
C160        C430   1.593       .  S
C160        C494   1.581       .  S
C160        C718   1.577       .  S
C160        C869   1.606   1_655  S
O161       Ni169   1.921       .  S
O161        C171   1.282       .  A
O162       Ni169   1.921       .  S
O162        C172   1.281       .  A
O163       Ni169   1.917       .  S
O163        C173   1.281   1_655  A
O164       Ni169   1.920       .  S
O164        C174   1.281       .  A
O165       Ni170   1.922       .  S
O165        C174   1.282   1_455  A
O166       Ni170   1.918       .  S
O166        C173   1.281       .  A
O167       Ni170   1.926       .  S
O167        C172   1.284   1_455  A
O168       Ni170   1.924       .  S
O168        C171   1.282   1_455  A
Ni169      Ni170   2.384   1_655  S
C171        C398   1.483       .  S
C172        C325   1.501       .  S
C173        C462   1.485       .  S
C174        C357   1.482       .  S
C175        C270   1.597       .  S
C175        C293   1.594       .  S
C175       C1029   1.570       .  S
C175       C1294   1.584   1_455  S
C176        C302   1.591       .  S
C176        C686   1.593       .  S
C176       C1774   1.569   1_655  S
C176       C1934   1.583       .  S
C177        C197   1.586       .  S
C177        C229   1.584       .  S
C177        C750   1.583   1_455  S
C177        C846   1.572       .  S
C178        C238   1.589       .  S
C178        C366   1.591       .  S
C178       C1733   1.567       .  S
C178       C1966   1.576   1_455  S
O179       Ni187   1.921       .  S
O179        C189   1.281   1_455  A
O180       Ni187   1.923       .  S
O180        C190   1.282       .  A
O181       Ni187   1.922       .  S
O181        C191   1.282       .  A
O182       Ni187   1.922       .  S
O182        C192   1.282       .  A
O183       Ni188   1.917       .  S
O183        C192   1.282   1_655  A
O184       Ni188   1.910       .  S
O184        C191   1.279   1_655  A
O185       Ni188   1.919       .  S
O185        C190   1.281   1_655  A
O186       Ni188   1.925       .  S
O186        C189   1.283       .  A
Ni187      Ni188   2.390   1_455  S
C189        C261   1.484       .  S
C190        C334   1.476       .  S
C191        C590   1.469       .  S
C192        C206   1.482       .  S
C193        C194   1.393   1_655  A
C193        C198   1.407       .  A
C193        H203   1.085       .  S
C194        C199   1.485       .  S
C194        C195   1.402       .  A
C195        C200   1.507       .  S
C195        C196   1.402       .  A
C196        C197   1.420       .  A
C196        H201   1.075       .  S
C197        C198   1.446   1_455  A
C198        C202   1.513       .  S
C199        C204   1.411   1_455  A
C199        C208   1.403       .  A
C200        H216   1.110       .  S
C200        H217   1.110       .  S
C200        H218   1.111       .  S
C202        H213   1.112       .  S
C202        H214   1.108       .  S
C202        H215   1.099       .  S
C204        C209   1.508       .  S
C204        C205   1.402       .  A
C205        C206   1.406   1_655  A
C205        H210   1.084       .  S
C206        C207   1.418       .  A
C207        C211   1.506       .  S
C207        C208   1.407       .  A
C208        H212   1.084       .  S
C209        H219   1.111       .  S
C209        H220   1.109       .  S
C209        H221   1.110       .  S
C211        H222   1.111       .  S
C211        H223   1.105       .  S
C211        H224   1.110       .  S
C225        C226   1.393       .  A
C225        C230   1.409       .  A
C225        H235   1.085       .  S
C226        C231   1.483       .  S
C226        C227   1.402   1_455  A
C227        C232   1.509       .  S
C227        C228   1.401       .  A
C228        C229   1.419   1_655  A
C228        H233   1.078       .  S
C229        C230   1.449       .  A
C230        C234   1.517       .  S
C231        C236   1.402   1_455  A
C231        C240   1.393       .  A
C232        H248   1.110       .  S
C232        H249   1.106       .  S
C232        H250   1.111       .  S
C234        H245   1.111       .  S
C234        H246   1.103       .  S
C234        H247   1.103       .  S
C236        C241   1.510   1_655  S
C236        C237   1.402       .  A
C237        C238   1.426   1_655  A
C237        H242   1.075       .  S
C238        C239   1.440       .  A
C239        C243   1.507       .  S
C239        C240   1.408       .  A
C240        H244   1.085       .  S
C241        H251   1.111   1_455  S
C241        H252   1.110       .  S
C241        H253   1.106   1_455  S
C243        H254   1.111       .  S
C243        H255   1.101       .  S
C243        H256   1.105   1_455  S
C257        C258   1.403       .  A
C257        C262   1.408       .  A
C257        H267   1.084       .  S
C258        C263   1.487       .  S
C258        C259   1.410   1_455  A
C259        C264   1.507       .  S
C259        C260   1.405       .  A
C260        C261   1.406       .  A
C260        H265   1.084       .  S
C261        C262   1.417   1_655  A
C262        C266   1.506       .  S
C263        C268   1.401   1_455  A
C263        C272   1.393       .  A
C264        H280   1.110       .  S
C264        H281   1.110       .  S
C264        H282   1.111       .  S
C266        H277   1.111       .  S
C266        H278   1.110       .  S
C266        H279   1.106       .  S
C268        C273   1.508       .  S
C268        C269   1.404       .  A
C269        C270   1.427   1_655  A
C269        H274   1.074       .  S
C270        C271   1.445       .  A
C271        C275   1.509       .  S
C271        C272   1.408       .  A
C272        H276   1.085       .  S
C273        H283   1.111       .  S
C273        H284   1.110       .  S
C273        H285   1.110       .  S
C275        H286   1.110       .  S
C275        H287   1.091       .  S
C275        H288   1.111       .  S
C289        C290   1.392   1_455  A
C289        C294   1.408       .  A
C289        H299   1.085       .  S
C290        C295   1.491       .  S
C290        C291   1.403       .  A
C291        C296   1.507       .  S
C291        C292   1.407       .  A
C292        C293   1.427   1_655  A
C292        H297   1.079       .  S
C293        C294   1.443       .  A
C294        C298   1.507       .  S
C295        C300   1.406       .  A
C295        C304   1.395   1_655  A
C296        H312   1.110       .  S
C296        H313   1.110       .  S
C296        H314   1.111       .  S
C298        H309   1.103   1_455  S
C298        H310   1.111       .  S
C298        H311   1.098       .  S
C300        C305   1.508       .  S
C300        C301   1.405       .  A
C301        C302   1.423       .  A
C301        H306   1.075       .  S
C302        C303   1.443   1_655  A
C303        C307   1.513       .  S
C303        C304   1.409       .  A
C304        H308   1.084       .  S
C305        H315   1.111       .  S
C305        H316   1.109       .  S
C305        H317   1.110       .  S
C307        H318   1.107       .  S
C307        H319   1.105       .  S
C307        H320   1.111       .  S
C321        C322   1.400   1_655  A
C321        C326   1.407       .  A
C321        H331   1.084       .  S
C322        C327   1.489       .  S
C322        C323   1.409       .  A
C323        C328   1.507       .  S
C323        C324   1.407       .  A
C324        C325   1.411   1_455  A
C324        H329   1.083       .  S
C325        C326   1.425       .  A
C326        C330   1.508       .  S
C327        C332   1.413   1_455  A
C327        C336   1.403       .  A
C328        H344   1.109       .  S
C328        H345   1.110       .  S
C328        H346   1.111       .  S
C330        H341   1.111       .  S
C330        H342   1.108       .  S
C330        H343   1.110       .  S
C332        C337   1.507       .  S
C332        C333   1.405       .  A
C333        C334   1.403   1_655  A
C333        H338   1.084       .  S
C334        C335   1.416       .  A
C335        C339   1.508       .  S
C335        C336   1.405       .  A
C336        H340   1.084       .  S
C337        H347   1.111       .  S
C337        H348   1.109       .  S
C337        H349   1.110   1_655  S
C339        H350   1.111       .  S
C339        H351   1.107       .  S
C339        H352   1.110       .  S
C353        C354   1.399       .  A
C353        C358   1.403       .  A
C353        H363   1.085       .  S
C354        C359   1.483       .  S
C354        C355   1.411   1_655  A
C355        C360   1.506       .  S
C355        C356   1.406       .  A
C356        C357   1.406   1_455  A
C356        H361   1.084       .  S
C357        C358   1.420       .  A
C358        C362   1.508       .  S
C359        C364   1.402   1_655  A
C359        C368   1.395       .  A
C360        H376   1.110       .  S
C360        H377   1.109       .  S
C360        H378   1.111       .  S
C362        H373   1.111       .  S
C362        H374   1.110       .  S
C362        H375   1.103       .  S
C364        C369   1.509       .  S
C364        C365   1.398       .  A
C365        C366   1.423       .  A
C365        H370   1.077       .  S
C366        C367   1.443   1_455  A
C367        C371   1.510       .  S
C367        C368   1.412       .  A
C368        H372   1.085       .  S
C369        H379   1.111       .  S
C369        H380   1.110       .  S
C369        H381   1.109       .  S
C371        H382   1.109       .  S
C371        H383   1.099       .  S
C371        H384   1.112       .  S
C385        C386   1.393   1_455  A
C385        C390   1.407       .  A
C385        H395   1.085       .  S
C386        C391   1.488       .  S
C386        C387   1.403       .  A
C387        C392   1.508       .  S
C387        C388   1.405       .  A
C388        C389   1.428   1_655  A
C388        H393   1.077       .  S
C389        C390   1.441       .  A
C390        C394   1.502       .  S
C391        C396   1.413   1_655  A
C391        C400   1.399       .  A
C392        H408   1.110       .  S
C392        H409   1.110       .  S
C392        H410   1.111       .  S
C394        H405   1.111       .  S
C394        H406   1.111       .  S
C394        H407   1.084       .  S
C396        C401   1.505       .  S
C396        C397   1.410       .  A
C397        C398   1.406   1_455  A
C397        H402   1.084       .  S
C398        C399   1.420       .  A
C399        C403   1.509       .  S
C399        C400   1.402       .  A
C400        H404   1.085       .  S
C401        H411   1.111       .  S
C401        H412   1.110       .  S
C401        H413   1.110       .  S
C403        H414   1.111       .  S
C403        H415   1.103       .  S
C403        H416   1.110       .  S
C417        C418   1.393   1_455  A
C417        C422   1.408       .  A
C417        H427   1.086       .  S
C418        C423   1.490       .  S
C418        C419   1.404       .  A
C419        C424   1.507       .  S
C419        C420   1.406       .  A
C420        C421   1.422   1_655  A
C420        H425   1.082       .  S
C421        C422   1.451       .  A
C422        C426   1.518       .  S
C423        C428   1.401   1_655  A
C423        C432   1.395       .  A
C424        H440   1.110       .  S
C424        H441   1.110       .  S
C424        H442   1.111       .  S
C426        H437   1.112       .  S
C426        H438   1.110       .  S
C426        H439   1.095       .  S
C428        C433   1.508       .  S
C428        C429   1.400       .  A
C429        C430   1.428   1_455  A
C429        H434   1.083       .  S
C430        C431   1.451       .  A
C431        C435   1.514       .  S
C431        C432   1.414       .  A
C432        H436   1.085       .  S
C433        H443   1.111       .  S
C433        H444   1.109       .  S
C433        H445   1.110       .  S
C435        H446   1.106       .  S
C435        H447   1.104       .  S
C435        H448   1.111       .  S
C449        C450   1.401   1_655  A
C449        C454   1.404       .  A
C449        H459   1.084       .  S
C450        C455   1.480       .  S
C450        C451   1.410       .  A
C451        C456   1.506       .  S
C451        C452   1.403       .  A
C452        C453   1.403       .  A
C452        H457   1.084       .  S
C453        C454   1.417   1_455  A
C454        C458   1.508       .  S
C455        C460   1.410   1_455  A
C455        C464   1.399       .  A
C456        H472   1.110       .  S
C456        H473   1.110       .  S
C456        H474   1.111       .  S
C458        H469   1.110       .  S
C458        H470   1.111       .  S
C458        H471   1.107       .  S
C460        C465   1.506       .  S
C460        C461   1.404       .  A
C461        C462   1.406   1_655  A
C461        H466   1.084       .  S
C462        C463   1.419       .  A
C463        C467   1.508       .  S
C463        C464   1.404       .  A
C464        H468   1.084       .  S
C465        H475   1.111       .  S
C465        H476   1.110       .  S
C465        H477   1.110       .  S
C467        H478   1.111       .  S
C467        H479   1.109       .  S
C467        H480   1.111       .  S
C481        C482   1.399   1_455  A
C481        C486   1.403       .  A
C481        H491   1.084       .  S
C482        C487   1.481       .  S
C482        C483   1.410       .  A
C483        C488   1.506       .  S
C483        C484   1.405       .  A
C484        C485   1.405   1_655  A
C484        H489   1.084       .  S
C485        C486   1.419       .  A
C486        C490   1.508       .  S
C487        C492   1.401   1_655  A
C487        C496   1.393       .  A
C488        H504   1.110       .  S
C488        H505   1.111       .  S
C488        H506   1.111       .  S
C490        H501   1.111       .  S
C490        H502   1.110       .  S
C490        H503   1.110       .  S
C492        C497   1.508       .  S
C492        C493   1.401       .  A
C493        C494   1.424   1_455  A
C493        H498   1.075       .  S
C494        C495   1.443       .  A
C495        C499   1.513       .  S
C495        C496   1.406       .  A
C496        H500   1.085       .  S
C497        H507   1.111       .  S
C497        H508   1.110       .  S
C497        H509   1.110       .  S
C499        H510   1.107       .  S
C499        H511   1.102       .  S
C499        H512   1.111       .  S
C513        C514   1.395   1_655  A
C513        C518   1.409       .  A
C513        H523   1.085       .  S
C514        C519   1.485       .  S
C514        C515   1.401       .  A
C515        C520   1.507       .  S
C515        C516   1.400       .  A
C516        C517   1.421   1_455  A
C516        H521   1.078       .  S
C517        C518   1.445       .  A
C518        C522   1.514       .  S
C519        C524   1.412   1_455  A
C519        C528   1.404       .  A
C520        H536   1.110       .  S
C520        H537   1.110       .  S
C520        H538   1.111       .  S
C522        H533   1.104       .  S
C522        H534   1.111       .  S
C522        H535   1.106       .  S
C524        C529   1.507       .  S
C524        C525   1.403       .  A
C525        C526   1.403   1_655  A
C525        H530   1.084       .  S
C526        C527   1.413       .  A
C527        C531   1.506       .  S
C527        C528   1.407       .  A
C528        H532   1.084       .  S
C529        H539   1.111       .  S
C529        H540   1.109       .  S
C529        H541   1.111       .  S
C531        H542   1.111       .  S
C531        H543   1.111       .  S
C531        H544   1.109       .  S
C545        C546   1.396   1_455  A
C545        C550   1.409       .  A
C545        H555   1.085       .  S
C546        C551   1.489       .  S
C546        C547   1.405       .  A
C547        C552   1.508       .  S
C547        C548   1.402       .  A
C548        C549   1.420   1_655  A
C548        H553   1.078       .  S
C549        C550   1.444       .  A
C550        C554   1.514       .  S
C551        C556   1.403   1_655  A
C551        C560   1.394       .  A
C552        H568   1.109       .  S
C552        H569   1.110       .  S
C552        H570   1.111       .  S
C554        H565   1.112       .  S
C554        H566   1.110       .  S
C554        H567   1.099       .  S
C556        C561   1.508       .  S
C556        C557   1.403       .  A
C557        C558   1.423   1_455  A
C557        H562   1.082       .  S
C558        C559   1.450       .  A
C559        C563   1.517       .  S
C559        C560   1.409       .  A
C560        H564   1.086       .  S
C561        H571   1.111       .  S
C561        H572   1.109       .  S
C561        H573   1.110       .  S
C563        H574   1.109       .  S
C563        H575   1.094       .  S
C563        H576   1.112       .  S
C577        C578   1.399       .  A
C577        C582   1.401       .  A
C577        H587   1.085       .  S
C578        C583   1.479       .  S
C578        C579   1.409   1_455  A
C579        C584   1.506       .  S
C579        C580   1.404       .  A
C580        C581   1.406   1_655  A
C580        H585   1.084       .  S
C581        C582   1.421       .  A
C582        C586   1.508       .  S
C583        C588   1.411   1_455  A
C583        C592   1.402       .  A
C584        H600   1.110       .  S
C584        H601   1.110       .  S
C584        H602   1.111       .  S
C586        H597   1.111       .  S
C586        H598   1.110       .  S
C586        H599   1.102       .  S
C588        C593   1.507       .  S
C588        C589   1.402       .  A
C589        C590   1.402   1_655  A
C589        H594   1.085       .  S
C590        C591   1.415       .  A
C591        C595   1.508       .  S
C591        C592   1.403       .  A
C592        H596   1.084       .  S
C593        H603   1.111       .  S
C593        H604   1.110       .  S
C593        H605   1.110       .  S
C595        H606   1.110       .  S
C595        H607   1.107       .  S
C595        H608   1.111       .  S
C609        C610   1.400       .  A
C609        C614   1.405       .  A
C609        H619   1.084       .  S
C610        C615   1.480       .  S
C610        C611   1.407   1_455  A
C611        C616   1.507       .  S
C611        C612   1.402       .  A
C612        C613   1.409   1_655  A
C612        H617   1.083       .  S
C613        C614   1.422       .  A
C614        C618   1.507       .  S
C615        C620   1.411       .  A
C615        C624   1.401   1_455  A
C616        H632   1.110       .  S
C616        H633   1.110       .  S
C616        H634   1.111       .  S
C618        H629   1.111       .  S
C618        H630   1.108       .  S
C618        H631   1.110       .  S
C620        C625   1.507       .  S
C620        C621   1.403       .  A
C621        C622   1.403       .  A
C621        H626   1.084       .  S
C622        C623   1.416   1_455  A
C623        C627   1.509       .  S
C623        C624   1.402       .  A
C624        H628   1.085       .  S
C625        H635   1.111       .  S
C625        H636   1.110       .  S
C625        H637   1.110       .  S
C627        H638   1.111       .  S
C627        H639   1.107       .  S
C627        H640   1.110       .  S
C641        C642   1.400       .  A
C641        C646   1.401       .  A
C641        H651   1.085       .  S
C642        C647   1.483       .  S
C642        C643   1.412   1_455  A
C643        C648   1.506       .  S
C643        C644   1.406       .  A
C644        C645   1.403   1_655  A
C644        H649   1.084       .  S
C645        C646   1.419       .  A
C646        C650   1.509       .  S
C647        C652   1.403       .  A
C647        C656   1.393   1_455  A
C648        H664   1.110       .  S
C648        H665   1.110       .  S
C648        H666   1.111       .  S
C650        H661   1.110       .  S
C650        H662   1.111       .  S
C650        H663   1.104       .  S
C652        C657   1.508       .  S
C652        C653   1.403       .  A
C653        C654   1.426       .  A
C653        H658   1.077       .  S
C654        C655   1.441   1_455  A
C655        C659   1.505       .  S
C655        C656   1.404       .  A
C656        H660   1.085       .  S
C657        H667   1.111       .  S
C657        H668   1.109       .  S
C657        H669   1.110       .  S
C659        H670   1.110       .  S
C659        H671   1.087       .  S
C659        H672   1.111       .  S
C673        C674   1.398   1_455  A
C673        C678   1.404       .  A
C673        H683   1.084       .  S
C674        C679   1.485       .  S
C674        C675   1.409       .  A
C675        C680   1.506       .  S
C675        C676   1.407       .  A
C676        C677   1.411   1_655  A
C676        H681   1.084       .  S
C677        C678   1.423       .  A
C678        C682   1.508       .  S
C679        C684   1.401       .  A
C679        C688   1.393       .  A
C680        H696   1.110       .  S
C680        H697   1.110       .  S
C680        H698   1.111       .  S
C682        H693   1.110       .  S
C682        H694   1.111       .  S
C682        H695   1.110       .  S
C684        C689   1.509       .  S
C684        C685   1.401       .  A
C685        C686   1.426       .  A
C685        H690   1.078       .  S
C686        C687   1.443       .  A
C687        C691   1.509       .  S
C687        C688   1.411       .  A
C688        H692   1.084       .  S
C689        H699   1.111       .  S
C689        H700   1.110   1_655  S
C689        H701   1.110       .  S
C691        H702   1.098   1_655  S
C691        H703   1.105       .  S
C691        H704   1.111       .  S
C705        C706   1.392       .  A
C705        C710   1.403       .  A
C705        H715   1.086       .  S
C706        C711   1.488       .  S
C706        C707   1.404       .  A
C707        C712   1.506       .  S
C707        C708   1.407       .  A
C708        C709   1.421       .  A
C708        H713   1.077       .  S
C709        C710   1.449       .  A
C710        C714   1.517       .  S
C711        C716   1.402       .  A
C711        C720   1.393       .  A
C712        H728   1.109       .  S
C712        H729   1.111       .  S
C712        H730   1.111       .  S
C714        H725   1.110       .  S
C714        H726   1.112       .  S
C714        H727   1.092       .  S
C716        C721   1.507       .  S
C716        C717   1.401       .  A
C717        C718   1.422       .  A
C717        H722   1.084       .  S
C718        C719   1.454       .  A
C719        C723   1.518       .  S
C719        C720   1.411       .  A
C720        H724   1.085       .  S
C721        H731   1.111       .  S
C721        H732   1.109       .  S
C721        H733   1.110       .  S
C723        H734   1.111       .  S
C723        H735   1.102       .  S
C723        H736   1.101       .  S
C737        C738   1.397       .  A
C737        C742   1.408       .  A
C737        H747   1.086       .  S
C738        C743   1.481       .  S
C738        C739   1.402       .  A
C739        C744   1.510       .  S
C739        C740   1.400       .  A
C740        C741   1.423       .  A
C740        H745   1.082   1_545  S
C741        C742   1.444       .  A
C742        C746   1.512       .  S
C743        C748   1.403       .  A
C743        C752   1.391       .  A
C744        H760   1.110       .  S
C744        H761   1.105       .  S
C744        H762   1.111       .  S
C746        H757   1.111       .  S
C746        H758   1.111       .  S
C746        H759   1.093       .  S
C748        C753   1.509       .  S
C748        C749   1.406       .  A
C749        C750   1.425       .  A
C749        H754   1.075       .  S
C750        C751   1.442       .  A
C751        C755   1.511       .  S
C751        C752   1.402       .  A
C752        H756   1.085       .  S
C753        H763   1.111       .  S
C753        H764   1.110       .  S
C753        H765   1.105       .  S
C755        H766   1.111       .  S
C755        H767   1.105   1_655  S
C755        H768   1.105   1_655  S
C769        C770   1.397       .  A
C769        C774   1.399       .  A
C769        H779   1.085       .  S
C770        C775   1.480       .  S
C770        C771   1.411       .  A
C771        C776   1.506       .  S
C771        C772   1.408       .  A
C772        C773   1.404       .  A
C772        H777   1.084       .  S
C773        C774   1.419       .  A
C774        C778   1.509       .  S
C775        C780   1.399       .  A
C775        C784   1.394       .  A
C776        H792   1.110       .  S
C776        H793   1.110   1_565  S
C776        H794   1.111       .  S
C778        H789   1.111       .  S
C778        H790   1.110       .  S
C778        H791   1.103       .  S
C780        C785   1.508   1_565  S
C780        C781   1.396       .  A
C781        C782   1.425       .  A
C781        H786   1.083   1_565  S
C782        C783   1.449       .  A
C783        C787   1.515       .  S
C783        C784   1.413       .  A
C784        H788   1.085       .  S
C785        H795   1.111       .  S
C785        H796   1.110       .  S
C785        H797   1.110       .  S
C787        H798   1.111       .  S
C787        H799   1.103       .  S
C787        H800   1.101       .  S
C801        C802   1.394       .  A
C801        C806   1.405       .  A
C801        H811   1.085       .  S
C802        C807   1.484       .  S
C802        C803   1.405       .  A
C803        C808   1.510       .  S
C803        C804   1.400       .  A
C804        C805   1.424       .  A
C804        H809   1.077       .  S
C805        C806   1.441       .  A
C806        C810   1.511       .  S
C807        C812   1.405       .  A
C807        C816   1.391   1_565  A
C808        H824   1.109       .  S
C808        H825   1.111       .  S
C808        H826   1.111       .  S
C810        H821   1.110       .  S
C810        H822   1.111   1_565  S
C810        H823   1.095       .  S
C812        C817   1.507       .  S
C812        C813   1.405       .  A
C813        C814   1.423       .  A
C813        H818   1.078       .  S
C814        C815   1.440   1_565  A
C815        C819   1.506       .  S
C815        C816   1.404       .  A
C816        H820   1.085       .  S
C817        H827   1.111       .  S
C817        H828   1.109       .  S
C817        H829   1.111       .  S
C819        H830   1.103       .  S
C819        H831   1.101       .  S
C819        H832   1.111       .  S
C833        C834   1.396       .  A
C833        C838   1.408       .  A
C833        H843   1.085       .  S
C834        C839   1.488       .  S
C834        C835   1.405       .  A
C835        C840   1.511       .  S
C835        C836   1.400   1_545  A
C836        C837   1.425       .  A
C836        H841   1.076       .  S
C837        C838   1.442   1_565  A
C838        C842   1.510       .  S
C839        C844   1.406       .  A
C839        C848   1.395       .  A
C840        H856   1.108       .  S
C840        H857   1.110       .  S
C840        H858   1.111   1_545  S
C842        H853   1.110       .  S
C842        H854   1.111       .  S
C842        H855   1.096       .  S
C844        C849   1.508       .  S
C844        C845   1.406       .  A
C845        C846   1.424       .  A
C845        H850   1.074       .  S
C846        C847   1.439       .  A
C847        C851   1.511       .  S
C847        C848   1.402       .  A
C848        H852   1.085       .  S
C849        H859   1.111       .  S
C849        H860   1.109       .  S
C849        H861   1.110       .  S
C851        H862   1.111       .  S
C851        H863   1.098       .  S
C851        H864   1.111       .  S
C865        C866   1.392       .  A
C865        C870   1.407       .  A
C865        H875   1.085       .  S
C866        C871   1.489       .  S
C866        C867   1.404       .  A
C867        C872   1.509       .  S
C867        C868   1.408       .  A
C868        C869   1.427       .  A
C868        H873   1.075       .  S
C869        C870   1.447       .  A
C870        C874   1.511   1_455  S
C871        C876   1.405       .  A
C871        C880   1.395       .  A
C872        H888   1.110       .  S
C872        H889   1.105       .  S
C872        H890   1.111       .  S
C874        H885   1.105       .  S
C874        H886   1.111   1_655  S
C874        H887   1.100       .  S
C876        C881   1.509       .  S
C876        C877   1.405       .  A
C877        C878   1.424       .  A
C877        H882   1.083       .  S
C878        C879   1.449       .  A
C879        C883   1.518       .  S
C879        C880   1.408       .  A
C880        H884   1.086       .  S
C881        H891   1.111       .  S
C881        H892   1.110       .  S
C881        H893   1.105       .  S
C883        H894   1.110       .  S
C883        H895   1.095       .  S
C883        H896   1.111       .  S
C897        C898   1.397       .  A
C897        C902   1.400       .  A
C897        H907   1.085       .  S
C898        C903   1.481       .  S
C898        C899   1.412       .  A
C899        C904   1.506       .  S
C899        C900   1.408       .  A
C900        C901   1.404       .  A
C900        H905   1.084       .  S
C901        C902   1.419       .  A
C902        C906   1.508       .  S
C903        C908   1.400       .  A
C903        C912   1.393       .  A
C904        H920   1.110       .  S
C904        H921   1.110       .  S
C904        H922   1.111       .  S
C906        H917   1.111       .  S
C906        H918   1.110   1_565  S
C906        H919   1.103       .  S
C908        C913   1.507       .  S
C908        C909   1.399       .  A
C909        C910   1.426       .  A
C909        H914   1.084       .  S
C910        C911   1.448       .  A
C911        C915   1.515   1_565  S
C911        C912   1.410       .  A
C912        H916   1.085   1_565  S
C913        H923   1.111       .  S
C913        H924   1.110       .  S
C913        H925   1.110       .  S
C915        H926   1.111       .  S
C915        H927   1.101       .  S
C915        H928   1.103       .  S
C929        C930   1.398       .  A
C929        C934   1.412       .  A
C929        H939   1.084       .  S
C930        C935   1.493       .  S
C930        C931   1.404       .  A
C931        C936   1.512       .  S
C931        C932   1.400       .  A
C932        C933   1.428       .  A
C932        H937   1.076       .  S
C933        C934   1.444       .  A
C934        C938   1.512       .  S
C935        C940   1.405       .  A
C935        C944   1.395       .  A
C936        H952   1.108       .  S
C936        H953   1.111       .  S
C936        H954   1.111       .  S
C938        H949   1.110       .  S
C938        H950   1.111       .  S
C938        H951   1.098       .  S
C940        C945   1.508   1_565  S
C940        C941   1.407       .  A
C941        C942   1.427       .  A
C941        H946   1.077       .  S
C942        C943   1.440       .  A
C943        C947   1.502       .  S
C943        C944   1.405       .  A
C944        H948   1.086       .  S
C945        H955   1.111       .  S
C945        H956   1.108       .  S
C945        H957   1.111       .  S
C947        H958   1.110       .  S
C947        H959   1.082       .  S
C947        H960   1.111       .  S
C961        C962   1.400       .  A
C961        C966   1.401       .  A
C961        H971   1.085       .  S
C962        C967   1.476       .  S
C962        C963   1.409       .  A
C963        C968   1.506       .  S
C963        C964   1.402       .  A
C964        C965   1.404       .  A
C964        H969   1.084       .  S
C965        C966   1.417       .  A
C966        C970   1.509       .  S
C967        C972   1.409       .  A
C967        C976   1.400       .  A
C968        H984   1.110       .  S
C968        H985   1.110       .  S
C968        H986   1.111       .  S
C970        H981   1.111       .  S
C970        H982   1.110   1_565  S
C970        H983   1.107       .  S
C972        C977   1.507       .  S
C972        C973   1.401       .  A
C973        C974   1.406       .  A
C973        H978   1.084       .  S
C974        C975   1.417       .  A
C975        C979   1.508       .  S
C975        C976   1.402       .  A
C976        H980   1.085       .  S
C977        H987   1.111       .  S
C977        H988   1.110       .  S
C977        H989   1.110       .  S
C979        H990   1.110   1_565  S
C979        H991   1.106       .  S
C979        H992   1.111       .  S
C993        C994   1.399       .  A
C993        C998   1.407       .  A
C993       H1003   1.084       .  S
C994        C999   1.486       .  S
C994        C995   1.408       .  A
C995       C1000   1.507   1_565  S
C995        C996   1.405       .  A
C996        C997   1.411       .  A
C996       H1001   1.083   1_565  S
C997        C998   1.425       .  A
C998       C1002   1.508       .  S
C999       C1004   1.403       .  A
C999       C1008   1.392       .  A
C1000      H1016   1.110       .  S
C1000      H1017   1.110       .  S
C1000      H1018   1.111       .  S
C1002      H1013   1.111       .  S
C1002      H1014   1.110       .  S
C1002      H1015   1.110       .  S
C1004      C1009   1.508       .  S
C1004      C1005   1.405       .  A
C1005      C1006   1.422       .  A
C1005      H1010   1.075       .  S
C1006      C1007   1.446       .  A
C1007      C1011   1.511       .  S
C1007      C1008   1.408       .  A
C1008      H1012   1.084       .  S
C1009      H1019   1.111       .  S
C1009      H1020   1.110       .  S
C1009      H1021   1.110       .  S
C1011      H1022   1.111       .  S
C1011      H1023   1.104       .  S
C1011      H1024   1.107       .  S
C1025      C1026   1.391       .  A
C1025      C1030   1.401       .  A
C1025      H1035   1.085       .  S
C1026      C1031   1.482       .  S
C1026      C1027   1.404       .  A
C1027      C1032   1.507       .  S
C1027      C1028   1.409       .  A
C1028      C1029   1.422       .  A
C1028      H1033   1.078       .  S
C1029      C1030   1.442       .  A
C1030      C1034   1.512       .  S
C1031      C1036   1.407       .  A
C1031      C1040   1.396       .  A
C1032      H1048   1.110       .  S
C1032      H1049   1.106       .  S
C1032      H1050   1.111       .  S
C1034      H1045   1.111       .  S
C1034      H1046   1.106       .  S
C1034      H1047   1.103   1_455  S
C1036      C1041   1.509       .  S
C1036      C1037   1.404       .  A
C1037      C1038   1.418       .  A
C1037      H1042   1.076       .  S
C1038      C1039   1.442       .  A
C1039      C1043   1.513       .  S
C1039      C1040   1.406       .  A
C1040      H1044   1.085       .  S
C1041      H1051   1.111       .  S
C1041      H1052   1.109       .  S
C1041      H1053   1.106       .  S
C1043      H1054   1.110       .  S
C1043      H1055   1.096       .  S
C1043      H1056   1.111       .  S
C1057      C1058   1.393       .  A
C1057      C1062   1.409       .  A
C1057      H1067   1.086       .  S
C1058      C1063   1.491       .  S
C1058      C1059   1.403       .  A
C1059      C1064   1.507       .  S
C1059      C1060   1.405       .  A
C1060      C1061   1.424       .  A
C1060      H1065   1.082       .  S
C1061      C1062   1.450       .  A
C1062      C1066   1.513       .  S
C1063      C1068   1.403       .  A
C1063      C1072   1.395       .  A
C1064      H1080   1.109       .  S
C1064      H1081   1.110       .  S
C1064      H1082   1.111       .  S
C1066      H1077   1.110       .  S
C1066      H1078   1.112       .  S
C1066      H1079   1.092   1_565  S
C1068      C1073   1.507       .  S
C1068      C1069   1.404       .  A
C1069      C1070   1.420       .  A
C1069      H1074   1.079       .  S
C1070      C1071   1.447       .  A
C1071      C1075   1.517       .  S
C1071      C1072   1.410       .  A
C1072      H1076   1.085       .  S
C1073      H1083   1.111       .  S
C1073      H1084   1.109       .  S
C1073      H1085   1.111       .  S
C1075      H1086   1.103       .  S
C1075      H1087   1.107       .  S
C1075      H1088   1.111       .  S
C1089      C1090   1.393       .  A
C1089      C1094   1.408       .  A
C1089      H1099   1.084       .  S
C1090      C1095   1.486       .  S
C1090      C1091   1.405       .  A
C1091      C1096   1.508       .  S
C1091      C1092   1.403       .  A
C1092      C1093   1.422       .  A
C1092      H1097   1.079       .  S
C1093      C1094   1.441       .  A
C1094      C1098   1.507       .  S
C1095      C1100   1.412       .  A
C1095      C1104   1.399       .  A
C1096      H1112   1.109       .  S
C1096      H1113   1.110       .  S
C1096      H1114   1.111       .  S
C1098      H1109   1.104       .  S
C1098      H1110   1.111       .  S
C1098      H1111   1.100   1_565  S
C1100      C1105   1.506       .  S
C1100      C1101   1.407       .  A
C1101      C1102   1.406       .  A
C1101      H1106   1.084       .  S
C1102      C1103   1.421       .  A
C1103      C1107   1.510   1_565  S
C1103      C1104   1.402       .  A
C1104      H1108   1.085   1_565  S
C1105      H1115   1.111       .  S
C1105      H1116   1.109       .  S
C1105      H1117   1.110       .  S
C1107      H1118   1.110       .  S
C1107      H1119   1.104       .  S
C1107      H1120   1.111       .  S
C1121      C1122   1.397       .  A
C1121      C1126   1.417       .  A
C1121      H1131   1.085       .  S
C1122      C1127   1.491       .  S
C1122      C1123   1.401       .  A
C1123      C1128   1.509   1_565  S
C1123      C1124   1.401       .  A
C1124      C1125   1.422       .  A
C1124      H1129   1.075   1_565  S
C1125      C1126   1.447       .  A
C1126      C1130   1.515       .  S
C1127      C1132   1.404       .  A
C1127      C1136   1.394       .  A
C1128      H1144   1.110   1_545  S
C1128      H1145   1.108       .  S
C1128      H1146   1.111       .  S
C1130      H1141   1.111       .  S
C1130      H1142   1.105       .  S
C1130      H1143   1.103       .  S
C1132      C1137   1.509   1_565  S
C1132      C1133   1.407       .  A
C1133      C1134   1.424       .  A
C1133      H1138   1.075   1_565  S
C1134      C1135   1.443       .  A
C1135      C1139   1.511       .  S
C1135      C1136   1.410       .  A
C1136      H1140   1.084       .  S
C1137      H1147   1.111       .  S
C1137      H1148   1.110       .  S
C1137      H1149   1.108       .  S
C1139      H1150   1.111       .  S
C1139      H1151   1.102       .  S
C1139      H1152   1.105       .  S
C1153      C1154   1.401       .  A
C1153      C1158   1.404       .  A
C1153      H1163   1.084       .  S
C1154      C1159   1.480       .  S
C1154      C1155   1.411       .  A
C1155      C1160   1.506       .  S
C1155      C1156   1.403       .  A
C1156      C1157   1.403       .  A
C1156      H1161   1.084       .  S
C1157      C1158   1.416       .  A
C1158      C1162   1.508       .  S
C1159      C1164   1.409       .  A
C1159      C1168   1.400       .  A
C1160      H1176   1.110       .  S
C1160      H1177   1.110   1_565  S
C1160      H1178   1.111   1_565  S
C1162      H1173   1.111       .  S
C1162      H1174   1.110       .  S
C1162      H1175   1.107       .  S
C1164      C1169   1.506   1_565  S
C1164      C1165   1.403       .  A
C1165      C1166   1.406       .  A
C1165      H1170   1.084       .  S
C1166      C1167   1.419       .  A
C1167      C1171   1.509       .  S
C1167      C1168   1.404       .  A
C1168      H1172   1.085       .  S
C1169      H1179   1.111       .  S
C1169      H1180   1.110   1_545  S
C1169      H1181   1.110       .  S
C1171      H1182   1.110       .  S
C1171      H1183   1.106       .  S
C1171      H1184   1.111       .  S
C1185      C1186   1.402       .  A
C1185      C1190   1.409       .  A
C1185      H1195   1.084       .  S
C1186      C1191   1.485       .  S
C1186      C1187   1.408   1_565  A
C1187      C1192   1.507       .  S
C1187      C1188   1.403       .  A
C1188      C1189   1.410   1_545  A
C1188      H1193   1.083       .  S
C1189      C1190   1.421       .  A
C1190      C1194   1.507       .  S
C1191      C1196   1.402       .  A
C1191      C1200   1.394       .  A
C1192      H1208   1.110       .  S
C1192      H1209   1.111       .  S
C1192      H1210   1.111       .  S
C1194      H1205   1.111       .  S
C1194      H1206   1.109       .  S
C1194      H1207   1.110       .  S
C1196      C1201   1.506       .  S
C1196      C1197   1.404       .  A
C1197      C1198   1.420       .  A
C1197      H1202   1.073       .  S
C1198      C1199   1.445       .  A
C1199      C1203   1.515       .  S
C1199      C1200   1.407       .  A
C1200      H1204   1.086       .  S
C1201      H1211   1.111       .  S
C1201      H1212   1.110       .  S
C1201      H1213   1.110   1_565  S
C1203      H1214   1.112       .  S
C1203      H1215   1.096       .  S
C1203      H1216   1.110       .  S
C1217      C1218   1.391       .  A
C1217      C1222   1.404       .  A
C1217      H1227   1.085       .  S
C1218      C1223   1.488       .  S
C1218      C1219   1.405       .  A
C1219      C1224   1.507       .  S
C1219      C1220   1.409       .  A
C1220      C1221   1.424       .  A
C1220      H1225   1.080       .  S
C1221      C1222   1.440       .  A
C1222      C1226   1.506       .  S
C1223      C1228   1.404       .  A
C1223      C1232   1.397       .  A
C1224      H1240   1.110       .  S
C1224      H1241   1.108       .  S
C1224      H1242   1.111       .  S
C1226      H1237   1.100       .  S
C1226      H1238   1.111       .  S
C1226      H1239   1.104       .  S
C1228      C1233   1.510       .  S
C1228      C1229   1.402       .  A
C1229      C1230   1.420       .  A
C1229      H1234   1.075       .  S
C1230      C1231   1.445       .  A
C1231      C1235   1.513       .  S
C1231      C1232   1.412       .  A
C1232      H1236   1.085       .  S
C1233      H1243   1.111       .  S
C1233      H1244   1.111       .  S
C1233      H1245   1.107       .  S
C1235      H1246   1.112       .  S
C1235      H1247   1.100       .  S
C1235      H1248   1.109       .  S
C1249      C1250   1.390       .  A
C1249      C1254   1.408       .  A
C1249      H1259   1.085       .  S
C1250      C1255   1.485       .  S
C1250      C1251   1.401       .  A
C1251      C1256   1.508       .  S
C1251      C1252   1.404       .  A
C1252      C1253   1.428       .  A
C1252      H1257   1.076       .  S
C1253      C1254   1.447       .  A
C1254      C1258   1.510       .  S
C1255      C1260   1.408   1_565  A
C1255      C1264   1.399       .  A
C1256      H1272   1.110       .  S
C1256      H1273   1.110   1_565  S
C1256      H1274   1.111       .  S
C1258      H1269   1.106   1_565  S
C1258      H1270   1.111       .  S
C1258      H1271   1.102       .  S
C1260      C1265   1.506       .  S
C1260      C1261   1.405       .  A
C1261      C1262   1.410   1_545  A
C1261      H1266   1.083       .  S
C1262      C1263   1.426       .  A
C1263      C1267   1.508       .  S
C1263      C1264   1.407       .  A
C1264      H1268   1.084       .  S
C1265      H1275   1.111       .  S
C1265      H1276   1.110       .  S
C1265      H1277   1.110       .  S
C1267      H1278   1.110       .  S
C1267      H1279   1.110       .  S
C1267      H1280   1.111       .  S
C1281      C1282   1.403       .  A
C1281      C1286   1.412       .  A
C1281      H1291   1.076       .  S
C1282      C1287   1.512       .  S
C1282      C1283   1.415       .  A
C1283      C1288   1.512       .  S
C1283      C1284   1.397       .  A
C1284      C1285   1.418       .  A
C1284      H1289   1.078   1_545  S
C1285      C1286   1.438       .  A
C1286      C1290   1.508       .  S
C1287      C1292   1.417       .  A
C1287      C1296   1.399       .  A
C1288      H1304   1.110       .  S
C1288      H1305   1.109       .  S
C1288      H1306   1.111       .  S
C1290      H1301   1.110       .  S
C1290      H1302   1.110       .  S
C1290      H1303   1.092       .  S
C1292      C1297   1.507       .  S
C1292      C1293   1.412       .  A
C1293      C1294   1.419       .  A
C1293      H1298   1.084       .  S
C1294      C1295   1.446       .  A
C1295      C1299   1.516   1_655  S
C1295      C1296   1.402       .  A
C1296      H1300   1.085       .  S
C1297      H1307   1.111       .  S
C1297      H1308   1.108       .  S
C1297      H1309   1.110       .  S
C1299      H1310   1.111       .  S
C1299      H1311   1.087       .  S
C1299      H1312   1.111       .  S
C1313      C1314   1.395       .  A
C1313      C1318   1.408       .  A
C1313      H1323   1.085   1_565  S
C1314      C1319   1.486       .  S
C1314      C1315   1.404       .  A
C1315      C1320   1.510       .  S
C1315      C1316   1.404       .  A
C1316      C1317   1.425       .  A
C1316      H1321   1.075       .  S
C1317      C1318   1.440       .  A
C1318      C1322   1.512   1_565  S
C1319      C1324   1.403       .  A
C1319      C1328   1.393       .  A
C1320      H1336   1.110       .  S
C1320      H1337   1.106       .  S
C1320      H1338   1.111       .  S
C1322      H1333   1.107       .  S
C1322      H1334   1.111       .  S
C1322      H1335   1.107       .  S
C1324      C1329   1.510       .  S
C1324      C1325   1.403       .  A
C1325      C1326   1.424       .  A
C1325      H1330   1.082       .  S
C1326      C1327   1.448       .  A
C1327      C1331   1.514   1_565  S
C1327      C1328   1.409       .  A
C1328      H1332   1.086   1_565  S
C1329      H1339   1.111       .  S
C1329      H1340   1.110       .  S
C1329      H1341   1.106       .  S
C1331      H1342   1.109       .  S
C1331      H1343   1.090       .  S
C1331      H1344   1.111       .  S
C1345      C1346   1.401       .  A
C1345      C1350   1.403       .  A
C1345      H1355   1.084       .  S
C1346      C1351   1.478       .  S
C1346      C1347   1.410       .  A
C1347      C1352   1.507   1_565  S
C1347      C1348   1.401       .  A
C1348      C1349   1.403       .  A
C1348      H1353   1.084   1_565  S
C1349      C1350   1.416       .  A
C1350      C1354   1.508       .  S
C1351      C1356   1.409       .  A
C1351      C1360   1.400       .  A
C1352      H1368   1.110   1_545  S
C1352      H1369   1.110       .  S
C1352      H1370   1.111       .  S
C1354      H1365   1.111       .  S
C1354      H1366   1.110       .  S
C1354      H1367   1.107       .  S
C1356      C1361   1.506   1_565  S
C1356      C1357   1.402       .  A
C1357      C1358   1.405       .  A
C1357      H1362   1.084   1_565  S
C1358      C1359   1.418       .  A
C1359      C1363   1.509       .  S
C1359      C1360   1.402       .  A
C1360      H1364   1.085       .  S
C1361      H1371   1.111       .  S
C1361      H1372   1.110   1_545  S
C1361      H1373   1.110       .  S
C1363      H1374   1.110       .  S
C1363      H1375   1.106       .  S
C1363      H1376   1.111       .  S
C1377      C1378   1.400       .  A
C1377      C1382   1.402       .  A
C1377      H1387   1.085       .  S
C1378      C1383   1.480       .  S
C1378      C1379   1.410       .  A
C1379      C1384   1.506       .  S
C1379      C1380   1.404       .  A
C1380      C1381   1.405       .  A
C1380      H1385   1.084       .  S
C1381      C1382   1.418       .  A
C1382      C1386   1.509   1_565  S
C1383      C1388   1.410       .  A
C1383      C1392   1.401       .  A
C1384      H1400   1.110       .  S
C1384      H1401   1.110       .  S
C1384      H1402   1.111       .  S
C1386      H1397   1.111       .  S
C1386      H1398   1.110       .  S
C1386      H1399   1.106       .  S
C1388      C1393   1.506       .  S
C1388      C1389   1.403       .  A
C1389      C1390   1.404       .  A
C1389      H1394   1.084       .  S
C1390      C1391   1.418       .  A
C1391      C1395   1.509       .  S
C1391      C1392   1.403       .  A
C1392      H1396   1.085       .  S
C1393      H1403   1.111       .  S
C1393      H1404   1.110       .  S
C1393      H1405   1.110       .  S
C1395      H1406   1.110   1_565  S
C1395      H1407   1.106       .  S
C1395      H1408   1.111       .  S
C1409      C1410   1.397       .  A
C1409      C1414   1.412       .  A
C1409      H1419   1.084       .  S
C1410      C1415   1.486       .  S
C1410      C1411   1.402       .  A
C1411      C1416   1.509   1_565  S
C1411      C1412   1.401       .  A
C1412      C1413   1.425       .  A
C1412      H1417   1.076   1_565  S
C1413      C1414   1.439       .  A
C1414      C1418   1.512       .  S
C1415      C1420   1.411       .  A
C1415      C1424   1.403       .  A
C1416      H1432   1.110       .  S
C1416      H1433   1.109       .  S
C1416      H1434   1.111       .  S
C1418      H1429   1.107       .  S
C1418      H1430   1.111       .  S
C1418      H1431   1.107       .  S
C1420      C1425   1.507   1_565  S
C1420      C1421   1.405       .  A
C1421      C1422   1.406       .  A
C1421      H1426   1.084   1_565  S
C1422      C1423   1.416       .  A
C1423      C1427   1.507       .  S
C1423      C1424   1.407       .  A
C1424      H1428   1.084       .  S
C1425      H1435   1.111       .  S
C1425      H1436   1.110   1_545  S
C1425      H1437   1.109       .  S
C1427      H1438   1.110       .  S
C1427      H1439   1.108       .  S
C1427      H1440   1.111       .  S
C1441      C1442   1.398       .  A
C1441      C1446   1.402       .  A
C1441      H1451   1.085       .  S
C1442      C1447   1.484       .  S
C1442      C1443   1.412       .  A
C1443      C1448   1.506   1_565  S
C1443      C1444   1.409       .  A
C1444      C1445   1.405       .  A
C1444      H1449   1.084   1_565  S
C1445      C1446   1.420       .  A
C1446      C1450   1.509       .  S
C1447      C1452   1.402       .  A
C1447      C1456   1.391       .  A
C1448      H1464   1.110   1_545  S
C1448      H1465   1.110       .  S
C1448      H1466   1.111       .  S
C1450      H1461   1.111       .  S
C1450      H1462   1.110       .  S
C1450      H1463   1.103       .  S
C1452      C1457   1.506   1_565  S
C1452      C1453   1.405       .  A
C1453      C1454   1.423       .  A
C1453      H1458   1.083   1_565  S
C1454      C1455   1.450       .  A
C1455      C1459   1.514       .  S
C1455      C1456   1.408       .  A
C1456      H1460   1.085       .  S
C1457      H1467   1.111       .  S
C1457      H1468   1.110       .  S
C1457      H1469   1.110       .  S
C1459      H1470   1.112       .  S
C1459      H1471   1.098       .  S
C1459      H1472   1.109       .  S
C1473      C1474   1.393       .  A
C1473      C1478   1.406       .  A
C1473      H1483   1.085       .  S
C1474      C1479   1.490       .  S
C1474      C1475   1.405       .  A
C1475      C1480   1.507       .  S
C1475      C1476   1.404       .  A
C1476      C1477   1.427       .  A
C1476      H1481   1.084       .  S
C1477      C1478   1.447       .  A
C1478      C1482   1.515       .  S
C1479      C1484   1.407       .  A
C1479      C1488   1.396       .  A
C1480      H1496   1.108       .  S
C1480      H1497   1.111       .  S
C1480      H1498   1.111       .  S
C1482      H1493   1.106       .  S
C1482      H1494   1.112       .  S
C1482      H1495   1.105       .  S
C1484      C1489   1.509       .  S
C1484      C1485   1.401       .  A
C1485      C1486   1.421       .  A
C1485      H1490   1.081       .  S
C1486      C1487   1.443       .  A
C1487      C1491   1.513       .  S
C1487      C1488   1.409       .  A
C1488      H1492   1.084       .  S
C1489      H1499   1.111       .  S
C1489      H1500   1.108       .  S
C1489      H1501   1.111       .  S
C1491      H1502   1.105       .  S
C1491      H1503   1.105       .  S
C1491      H1504   1.111       .  S
C1505      C1506   1.399       .  A
C1505      C1510   1.411       .  A
C1505      H1515   1.078       .  S
C1506      C1511   1.505       .  S
C1506      C1507   1.413       .  A
C1507      C1512   1.511       .  S
C1507      C1508   1.398       .  A
C1508      C1509   1.424       .  A
C1508      H1513   1.082       .  S
C1509      C1510   1.444       .  A
C1510      C1514   1.510       .  S
C1511      C1516   1.415       .  A
C1511      C1520   1.397       .  A
C1512      H1528   1.110       .  S
C1512      H1529   1.107       .  S
C1512      H1530   1.111       .  S
C1514      H1525   1.107       .  S
C1514      H1526   1.112       .  S
C1514      H1527   1.102       .  S
C1516      C1521   1.510       .  S
C1516      C1517   1.407       .  A
C1517      C1518   1.418       .  A
C1517      H1522   1.071       .  S
C1518      C1519   1.448       .  A
C1519      C1523   1.512       .  S
C1519      C1520   1.405       .  A
C1520      H1524   1.084       .  S
C1521      H1531   1.111       .  S
C1521      H1532   1.107       .  S
C1521      H1533   1.110       .  S
C1523      H1534   1.106       .  S
C1523      H1535   1.102       .  S
C1523      H1536   1.111       .  S
C1537      C1538   1.396       .  A
C1537      C1542   1.407       .  A
C1537      H1547   1.084       .  S
C1538      C1543   1.493       .  S
C1538      C1539   1.407       .  A
C1539      C1544   1.509       .  S
C1539      C1540   1.405       .  A
C1540      C1541   1.423       .  A
C1540      H1545   1.076       .  S
C1541      C1542   1.441       .  A
C1542      C1546   1.512       .  S
C1543      C1548   1.405       .  A
C1543      C1552   1.398       .  A
C1544      H1560   1.108       .  S
C1544      H1561   1.110       .  S
C1544      H1562   1.111       .  S
C1546      H1557   1.106   1_455  S
C1546      H1558   1.111       .  S
C1546      H1559   1.099       .  S
C1548      C1553   1.512       .  S
C1548      C1549   1.400       .  A
C1549      C1550   1.423       .  A
C1549      H1554   1.072   1_554  S
C1550      C1551   1.442       .  A
C1551      C1555   1.511       .  S
C1551      C1552   1.412       .  A
C1552      H1556   1.084       .  S
C1553      H1563   1.111       .  S
C1553      H1564   1.108       .  S
C1553      H1565   1.111       .  S
C1555      H1566   1.111       .  S
C1555      H1567   1.103       .  S
C1555      H1568   1.107       .  S
C1569      C1570   1.394       .  A
C1569      C1574   1.414       .  A
C1569      H1579   1.084       .  S
C1570      C1575   1.484       .  S
C1570      C1571   1.401       .  A
C1571      C1576   1.511       .  S
C1571      C1572   1.397       .  A
C1572      C1573   1.426       .  A
C1572      H1577   1.082       .  S
C1573      C1574   1.448       .  A
C1574      C1578   1.511       .  S
C1575      C1580   1.404       .  A
C1575      C1584   1.393       .  A
C1576      H1592   1.111       .  S
C1576      H1593   1.108       .  S
C1576      H1594   1.111       .  S
C1578      H1589   1.111       .  S
C1578      H1590   1.104       .  S
C1578      H1591   1.106       .  S
C1580      C1585   1.508       .  S
C1580      C1581   1.404       .  A
C1581      C1582   1.424       .  A
C1581      H1586   1.080       .  S
C1582      C1583   1.439       .  A
C1583      C1587   1.502       .  S
C1583      C1584   1.404       .  A
C1584      H1588   1.085       .  S
C1585      H1595   1.111       .  S
C1585      H1596   1.110       .  S
C1585      H1597   1.108       .  S
C1587      H1598   1.110       .  S
C1587      H1599   1.084       .  S
C1587      H1600   1.111       .  S
C1601      C1602   1.392       .  A
C1601      C1606   1.406       .  A
C1601      H1611   1.085       .  S
C1602      C1607   1.480       .  S
C1602      C1603   1.402       .  A
C1603      C1608   1.509   1_556  S
C1603      C1604   1.399       .  A
C1604      C1605   1.425       .  A
C1604      H1609   1.077   1_556  S
C1605      C1606   1.444       .  A
C1606      C1610   1.510       .  S
C1607      C1612   1.409   1_556  A
C1607      C1616   1.399       .  A
C1608      H1624   1.110   1_554  S
C1608      H1625   1.110       .  S
C1608      H1626   1.111       .  S
C1610      H1621   1.110   1_556  S
C1610      H1622   1.111       .  S
C1610      H1623   1.091       .  S
C1612      C1617   1.506       .  S
C1612      C1613   1.404       .  A
C1613      C1614   1.408   1_554  A
C1613      H1618   1.084       .  S
C1614      C1615   1.420       .  A
C1615      C1619   1.508       .  S
C1615      C1616   1.402       .  A
C1616      H1620   1.084       .  S
C1617      H1627   1.111       .  S
C1617      H1628   1.110       .  S
C1617      H1629   1.110       .  S
C1619      H1630   1.110       .  S
C1619      H1631   1.111       .  S
C1619      H1632   1.111       .  S
C1633      C1634   1.397   1_554  A
C1633      C1638   1.414       .  A
C1633      H1643   1.085       .  S
C1634      C1639   1.491       .  S
C1634      C1635   1.402       .  A
C1635      C1640   1.510       .  S
C1635      C1636   1.402       .  A
C1636      C1637   1.425       .  A
C1636      H1641   1.082       .  S
C1637      C1638   1.448   1_556  A
C1638      C1642   1.516       .  S
C1639      C1644   1.403       .  A
C1639      C1648   1.396   1_556  A
C1640      H1656   1.110       .  S
C1640      H1657   1.107       .  S
C1640      H1658   1.111       .  S
C1642      H1653   1.111       .  S
C1642      H1654   1.110       .  S
C1642      H1655   1.095       .  S
C1644      C1649   1.511       .  S
C1644      C1645   1.404       .  A
C1645      C1646   1.425       .  A
C1645      H1650   1.073       .  S
C1646      C1647   1.444   1_556  A
C1647      C1651   1.512       .  S
C1647      C1648   1.414       .  A
C1648      H1652   1.084       .  S
C1649      H1659   1.111       .  S
C1649      H1660   1.110       .  S
C1649      H1661   1.107       .  S
C1651      H1662   1.111       .  S
C1651      H1663   1.103       .  S
C1651      H1664   1.107       .  S
C1665      C1666   1.394       .  A
C1665      C1670   1.410       .  A
C1665      H1675   1.084       .  S
C1666      C1671   1.483       .  S
C1666      C1667   1.401       .  A
C1667      C1672   1.510       .  S
C1667      C1668   1.400   1_545  A
C1668      C1669   1.425       .  A
C1668      H1673   1.073       .  S
C1669      C1670   1.443   1_565  A
C1670      C1674   1.514       .  S
C1671      C1676   1.401       .  A
C1671      C1680   1.392       .  A
C1672      H1688   1.110       .  S
C1672      H1689   1.109       .  S
C1672      H1690   1.111   1_545  S
C1674      H1685   1.107       .  S
C1674      H1686   1.111       .  S
C1674      H1687   1.107       .  S
C1676      C1681   1.507       .  S
C1676      C1677   1.402       .  A
C1677      C1678   1.422       .  A
C1677      H1682   1.081       .  S
C1678      C1679   1.448       .  A
C1679      C1683   1.517       .  S
C1679      C1680   1.409       .  A
C1680      H1684   1.085       .  S
C1681      H1691   1.111       .  S
C1681      H1692   1.110       .  S
C1681      H1693   1.109       .  S
C1683      H1694   1.102       .  S
C1683      H1695   1.105       .  S
C1683      H1696   1.111       .  S
C1697      C1698   1.394       .  A
C1697      C1702   1.409       .  A
C1697      H1707   1.085       .  S
C1698      C1703   1.495       .  S
C1698      C1699   1.406       .  A
C1699      C1704   1.508       .  S
C1699      C1700   1.405       .  A
C1700      C1701   1.425       .  A
C1700      H1705   1.080   1_545  S
C1701      C1702   1.448       .  A
C1702      C1706   1.514       .  S
C1703      C1708   1.406       .  A
C1703      C1712   1.396       .  A
C1704      H1720   1.108       .  S
C1704      H1721   1.111       .  S
C1704      H1722   1.111       .  S
C1706      H1717   1.112       .  S
C1706      H1718   1.104       .  S
C1706      H1719   1.105   1_545  S
C1708      C1713   1.511       .  S
C1708      C1709   1.400       .  A
C1709      C1710   1.422       .  A
C1709      H1714   1.077       .  S
C1710      C1711   1.448       .  A
C1711      C1715   1.513       .  S
C1711      C1712   1.413       .  A
C1712      H1716   1.084       .  S
C1713      H1723   1.111       .  S
C1713      H1724   1.108       .  S
C1713      H1725   1.111       .  S
C1715      H1726   1.104       .  S
C1715      H1727   1.105       .  S
C1715      H1728   1.111       .  S
C1729      C1730   1.395       .  A
C1729      C1734   1.410       .  A
C1729      H1739   1.085       .  S
C1730      C1735   1.479       .  S
C1730      C1731   1.404       .  A
C1731      C1736   1.511       .  S
C1731      C1732   1.398       .  A
C1732      C1733   1.421       .  A
C1732      H1737   1.079       .  S
C1733      C1734   1.442       .  A
C1734      C1738   1.514       .  S
C1735      C1740   1.402       .  A
C1735      C1744   1.393       .  A
C1736      H1752   1.110       .  S
C1736      H1753   1.107       .  S
C1736      H1754   1.111       .  S
C1738      H1749   1.111       .  S
C1738      H1750   1.103       .  S
C1738      H1751   1.104       .  S
C1740      C1745   1.509       .  S
C1740      C1741   1.403       .  A
C1741      C1742   1.424       .  A
C1741      H1746   1.078       .  S
C1742      C1743   1.440       .  A
C1743      C1747   1.511       .  S
C1743      C1744   1.403       .  A
C1744      H1748   1.085       .  S
C1745      H1755   1.111       .  S
C1745      H1756   1.110       .  S
C1745      H1757   1.107       .  S
C1747      H1758   1.108       .  S
C1747      H1759   1.105       .  S
C1747      H1760   1.111       .  S
C1761      C1762   1.397       .  A
C1761      C1766   1.409       .  A
C1761      H1771   1.084       .  S
C1762      C1767   1.492       .  S
C1762      C1763   1.406       .  A
C1763      C1768   1.509       .  S
C1763      C1764   1.399       .  A
C1764      C1765   1.424       .  A
C1764      H1769   1.074   1_556  S
C1765      C1766   1.441       .  A
C1766      C1770   1.509       .  S
C1767      C1772   1.409       .  A
C1767      C1776   1.395       .  A
C1768      H1784   1.108       .  S
C1768      H1785   1.110       .  S
C1768      H1786   1.111       .  S
C1770      H1781   1.111       .  S
C1770      H1782   1.111       .  S
C1770      H1783   1.095       .  S
C1772      C1777   1.507       .  S
C1772      C1773   1.408       .  A
C1773      C1774   1.420       .  A
C1773      H1778   1.078       .  S
C1774      C1775   1.441       .  A
C1775      C1779   1.512       .  S
C1775      C1776   1.406       .  A
C1776      H1780   1.084       .  S
C1777      H1787   1.111       .  S
C1777      H1788   1.109       .  S
C1777      H1789   1.111       .  S
C1779      H1790   1.107       .  S
C1779      H1791   1.106   1_455  S
C1779      H1792   1.111       .  S
C1793      C1794   1.397   1_554  A
C1793      C1798   1.403       .  A
C1793      H1803   1.084       .  S
C1794      C1799   1.475       .  S
C1794      C1795   1.406       .  A
C1795      C1800   1.507       .  S
C1795      C1796   1.400       .  A
C1796      C1797   1.410       .  A
C1796      H1801   1.083       .  S
C1797      C1798   1.425   1_556  A
C1798      C1802   1.509       .  S
C1799      C1804   1.400       .  A
C1799      C1808   1.391       .  A
C1800      H1816   1.110       .  S
C1800      H1817   1.110       .  S
C1800      H1818   1.111       .  S
C1802      H1813   1.111       .  S
C1802      H1814   1.110       .  S
C1802      H1815   1.110       .  S
C1804      C1809   1.509       .  S
C1804      C1805   1.398       .  A
C1805      C1806   1.422       .  A
C1805      H1810   1.076       .  S
C1806      C1807   1.444       .  A
C1807      C1811   1.513       .  S
C1807      C1808   1.405       .  A
C1808      H1812   1.085       .  S
C1809      H1819   1.111       .  S
C1809      H1820   1.110   1_556  S
C1809      H1821   1.110       .  S
C1811      H1822   1.111       .  S
C1811      H1823   1.103   1_556  S
C1811      H1824   1.107       .  S
C1825      C1826   1.392       .  A
C1825      C1830   1.402       .  A
C1825      H1835   1.086       .  S
C1826      C1831   1.485       .  S
C1826      C1827   1.404   1_554  A
C1827      C1832   1.509       .  S
C1827      C1828   1.406       .  A
C1828      C1829   1.425   1_556  A
C1828      H1833   1.077       .  S
C1829      C1830   1.442       .  A
C1830      C1834   1.510       .  S
C1831      C1836   1.403   1_554  A
C1831      C1840   1.395       .  A
C1832      H1848   1.110       .  S
C1832      H1849   1.107       .  S
C1832      H1850   1.111       .  S
C1834      H1845   1.111       .  S
C1834      H1846   1.110       .  S
C1834      H1847   1.092       .  S
C1836      C1841   1.508       .  S
C1836      C1837   1.402       .  A
C1837      C1838   1.424   1_556  A
C1837      H1842   1.083       .  S
C1838      C1839   1.447       .  A
C1839      C1843   1.514       .  S
C1839      C1840   1.408       .  A
C1840      H1844   1.086       .  S
C1841      H1851   1.111       .  S
C1841      H1852   1.110       .  S
C1841      H1853   1.107       .  S
C1843      H1854   1.112       .  S
C1843      H1855   1.096       .  S
C1843      H1856   1.110       .  S
C1857      C1858   1.400       .  A
C1857      C1862   1.402       .  A
C1857      H1867   1.085   1_556  S
C1858      C1863   1.478       .  S
C1858      C1859   1.410       .  A
C1859      C1864   1.507       .  S
C1859      C1860   1.402       .  A
C1860      C1861   1.404       .  A
C1860      H1865   1.084       .  S
C1861      C1862   1.417       .  A
C1862      C1866   1.509   1_556  S
C1863      C1868   1.410       .  A
C1863      C1872   1.400   1_556  A
C1864      H1880   1.110       .  S
C1864      H1881   1.110       .  S
C1864      H1882   1.111       .  S
C1866      H1877   1.111       .  S
C1866      H1878   1.110       .  S
C1866      H1879   1.106       .  S
C1868      C1873   1.506       .  S
C1868      C1869   1.403       .  A
C1869      C1870   1.404       .  A
C1869      H1874   1.084       .  S
C1870      C1871   1.417   1_556  A
C1871      C1875   1.509       .  S
C1871      C1872   1.401       .  A
C1872      H1876   1.085       .  S
C1873      H1883   1.111       .  S
C1873      H1884   1.110       .  S
C1873      H1885   1.110       .  S
C1875      H1886   1.110       .  S
C1875      H1887   1.106       .  S
C1875      H1888   1.111       .  S
C1889      C1890   1.392   1_554  A
C1889      C1894   1.408       .  A
C1889      H1899   1.084       .  S
C1890      C1895   1.486       .  S
C1890      C1891   1.403       .  A
C1891      C1896   1.507       .  S
C1891      C1892   1.406       .  A
C1892      C1893   1.425   1_556  A
C1892      H1897   1.076       .  S
C1893      C1894   1.442       .  A
C1894      C1898   1.511       .  S
C1895      C1900   1.412       .  A
C1895      C1904   1.402   1_556  A
C1896      H1912   1.110       .  S
C1896      H1913   1.110       .  S
C1896      H1914   1.111       .  S
C1898      H1909   1.104       .  S
C1898      H1910   1.111       .  S
C1898      H1911   1.103       .  S
C1900      C1905   1.506       .  S
C1900      C1901   1.406       .  A
C1901      C1902   1.403       .  A
C1901      H1906   1.084       .  S
C1902      C1903   1.416   1_556  A
C1903      C1907   1.508       .  S
C1903      C1904   1.405       .  A
C1904      H1908   1.084       .  S
C1905      H1915   1.111       .  S
C1905      H1916   1.110       .  S
C1905      H1917   1.110       .  S
C1907      H1918   1.110       .  S
C1907      H1919   1.108       .  S
C1907      H1920   1.110       .  S
C1921      C1922   1.398       .  A
C1921      C1926   1.409       .  A
C1921      H1931   1.081       .  S
C1922      C1927   1.497       .  S
C1922      C1923   1.409       .  A
C1923      C1928   1.511       .  S
C1923      C1924   1.398       .  A
C1924      C1925   1.415       .  A
C1924      H1929   1.058       .  S
C1925      C1926   1.446       .  A
C1926      C1930   1.512       .  S
C1927      C1932   1.409       .  A
C1927      C1936   1.394       .  A
C1928      H1944   1.110       .  S
C1928      H1945   1.109       .  S
C1928      H1946   1.111       .  S
C1930      H1941   1.111       .  S
C1930      H1942   1.110       .  S
C1930      H1943   1.101       .  S
C1932      C1937   1.507       .  S
C1932      C1933   1.410       .  A
C1933      C1934   1.423       .  A
C1933      H1938   1.083       .  S
C1934      C1935   1.446       .  A
C1935      C1939   1.513       .  S
C1935      C1936   1.400       .  A
C1936      H1940   1.086       .  S
C1937      H1947   1.111       .  S
C1937      H1948   1.106       .  S
C1937      H1949   1.110       .  S
C1939      H1950   1.112       .  S
C1939      H1951   1.087   1_655  S
C1939      H1952   1.109   1_655  S
C1953      C1954   1.395       .  A
C1953      C1958   1.412       .  A
C1953      H1963   1.085       .  S
C1954      C1959   1.486       .  S
C1954      C1955   1.399       .  A
C1955      C1960   1.511       .  S
C1955      C1956   1.399       .  A
C1956      C1957   1.429       .  A
C1956      H1961   1.072       .  S
C1957      C1958   1.453       .  A
C1958      C1962   1.519       .  S
C1959      C1964   1.405       .  A
C1959      C1968   1.391       .  A
C1960      H1976   1.110       .  S
C1960      H1977   1.107       .  S
C1960      H1978   1.111       .  S
C1962      H1973   1.110       .  S
C1962      H1974   1.111       .  S
C1962      H1975   1.100       .  S
C1964      C1969   1.507       .  S
C1964      C1965   1.407       .  A
C1965      C1966   1.422       .  A
C1965      H1970   1.083       .  S
C1966      C1967   1.451       .  A
C1967      C1971   1.516   1_655  S
C1967      C1968   1.404       .  A
C1968      H1972   1.086       .  S
C1969      H1979   1.111       .  S
C1969      H1980   1.110       .  S
C1969      H1981   1.107       .  S
C1971      H1982   1.112       .  S
C1971      H1983   1.094       .  S
C1971      H1984   1.111       .  S
C1985      C1986   1.392       .  A
C1985      C1990   1.399       .  A
C1985      H1995   1.085       .  S
C1986      C1991   1.476       .  S
C1986      C1987   1.403       .  A
C1987      C1992   1.508       .  S
C1987      C1988   1.403       .  A
C1988      C1989   1.424       .  A
C1988      H1993   1.079       .  S
C1989      C1990   1.439       .  A
C1990      C1994   1.510   1_545  S
C1991      C1996   1.402       .  A
C1991      C2000   1.392       .  A
C1992      H2008   1.110       .  S
C1992      H2009   1.106       .  S
C1992      H2010   1.111       .  S
C1994      H2005   1.111       .  S
C1994      H2006   1.106       .  S
C1994      H2007   1.098       .  S
C1996      C2001   1.512       .  S
C1996      C1997   1.398       .  A
C1997      C1998   1.423       .  A
C1997      H2002   1.080       .  S
C1998      C1999   1.452       .  A
C1999      C2003   1.519       .  S
C1999      C2000   1.406       .  A
C2000      H2004   1.086       .  S
C2001      H2011   1.111       .  S
C2001      H2012   1.111       .  S
C2001      H2013   1.106       .  S
C2003      H2014   1.094       .  S
C2003      H2015   1.112       .  S
C2003      H2016   1.111       .  S
C2017      C2018   1.393       .  A
C2017      C2022   1.407       .  A
C2017      H2027   1.085       .  S
C2018      C2023   1.484       .  S
C2018      C2019   1.404       .  A
C2019      C2024   1.511       .  S
C2019      C2020   1.403       .  A
C2020      C2021   1.425       .  A
C2020      H2025   1.075   1_556  S
C2021      C2022   1.442       .  A
C2022      C2026   1.513       .  S
C2023      C2028   1.402       .  A
C2023      C2032   1.394       .  A
C2024      H2040   1.110       .  S
C2024      H2041   1.107       .  S
C2024      H2042   1.111   1_556  S
C2026      H2037   1.106       .  S
C2026      H2038   1.111       .  S
C2026      H2039   1.105       .  S
C2028      C2033   1.511       .  S
C2028      C2029   1.398       .  A
C2029      C2030   1.423       .  A
C2029      H2034   1.080   1_545  S
C2030      C2031   1.448       .  A
C2031      C2035   1.515       .  S
C2031      C2032   1.412       .  A
C2032      H2036   1.085       .  S
C2033      H2043   1.111       .  S
C2033      H2044   1.110       .  S
C2033      H2045   1.106       .  S
C2035      H2046   1.103       .  S
C2035      H2047   1.104   1_545  S
C2035      H2048   1.111       .  S
C2049      C2050   1.398   1_554  A
C2049      C2054   1.403       .  A
C2049      H2059   1.085       .  S
C2050      C2055   1.474       .  S
C2050      C2051   1.405       .  A
C2051      C2056   1.507       .  S
C2051      C2052   1.401       .  A
C2052      C2053   1.411       .  A
C2052      H2057   1.083       .  S
C2053      C2054   1.424   1_556  A
C2054      C2058   1.508       .  S
C2055      C2060   1.402       .  A
C2055      C2064   1.394       .  A
C2056      H2072   1.110       .  S
C2056      H2073   1.110       .  S
C2056      H2074   1.111       .  S
C2058      H2069   1.111       .  S
C2058      H2070   1.110       .  S
C2058      H2071   1.110       .  S
C2060      C2065   1.509       .  S
C2060      C2061   1.396       .  A
C2061      C2062   1.417   1_556  A
C2061      H2066   1.075       .  S
C2062      C2063   1.441   1_554  A
C2063      C2067   1.512       .  S
C2063      C2064   1.408       .  A
C2064      H2068   1.084       .  S
C2065      H2075   1.111       .  S
C2065      H2076   1.110   1_556  S
C2065      H2077   1.109       .  S
C2067      H2078   1.111       .  S
C2067      H2079   1.105   1_556  S
C2067      H2080   1.108       .  S
C2081      C2082   1.400       .  A
C2081      C2086   1.404       .  A
C2081      H2091   1.085       .  S
C2082      C2087   1.487       .  S
C2082      C2083   1.408   1_554  A
C2083      C2088   1.513       .  S
C2083      C2084   1.402       .  A
C2084      C2085   1.422   1_556  A
C2084      H2089   1.076       .  S
C2085      C2086   1.438       .  A
C2086      C2090   1.513       .  S
C2087      C2092   1.406   1_554  A
C2087      C2096   1.393       .  A
C2088      H2104   1.110       .  S
C2088      H2105   1.104       .  S
C2088      H2106   1.111       .  S
C2090      H2101   1.109       .  S
C2090      H2102   1.111       .  S
C2090      H2103   1.105       .  S
C2092      C2097   1.510       .  S
C2092      C2093   1.407       .  A
C2093      C2094   1.427   1_556  A
C2093      H2098   1.080       .  S
C2094      C2095   1.438       .  A
C2095      C2099   1.502       .  S
C2095      C2096   1.398       .  A
C2096      H2100   1.085       .  S
C2097      H2107   1.111       .  S
C2097      H2108   1.110   1_556  S
C2097      H2109   1.104       .  S
C2099      H2110   1.111       .  S
C2099      H2111   1.081       .  S
C2099      H2112   1.111       .  S
C2113      C2114   1.402       .  A
C2113      C2118   1.405       .  A
C2113      H2123   1.085       .  S
C2114      C2119   1.488       .  S
C2114      C2115   1.411   1_556  A
C2115      C2120   1.506       .  S
C2115      C2116   1.406       .  A
C2116      C2117   1.406   1_554  A
C2116      H2121   1.084       .  S
C2117      C2118   1.419       .  A
C2118      C2122   1.509       .  S
C2119      C2124   1.412   1_556  A
C2119      C2128   1.403       .  A
C2120      H2136   1.110       .  S
C2120      H2137   1.110       .  S
C2120      H2138   1.111       .  S
C2122      H2133   1.111       .  S
C2122      H2134   1.110       .  S
C2122      H2135   1.106       .  S
C2124      C2129   1.507       .  S
C2124      C2125   1.405       .  A
C2125      C2126   1.404   1_554  A
C2125      H2130   1.084       .  S
C2126      C2127   1.418       .  A
C2127      C2131   1.508       .  S
C2127      C2128   1.406       .  A
C2128      H2132   1.084       .  S
C2129      H2139   1.111       .  S
C2129      H2140   1.110       .  S
C2129      H2141   1.110       .  S
C2131      H2142   1.110       .  S
C2131      H2143   1.107       .  S
C2131      H2144   1.111       .  S
C2145      C2146   1.400   1_554  A
C2145      C2150   1.407       .  A
C2145      H2155   1.084       .  S
C2146      C2151   1.484       .  S
C2146      C2147   1.409       .  A
C2147      C2152   1.508       .  S
C2147      C2148   1.404       .  A
C2148      C2149   1.409       .  A
C2148      H2153   1.084       .  S
C2149      C2150   1.422   1_556  A
C2150      C2154   1.508       .  S
C2151      C2156   1.399       .  A
C2151      C2160   1.392   1_556  A
C2152      H2168   1.110       .  S
C2152      H2169   1.110       .  S
C2152      H2170   1.111       .  S
C2154      H2165   1.111       .  S
C2154      H2166   1.109       .  S
C2154      H2167   1.111       .  S
C2156      C2161   1.505       .  S
C2156      C2157   1.403       .  A
C2157      C2158   1.430   1_556  A
C2157      H2162   1.084       .  S
C2158      C2159   1.448       .  A
C2159      C2163   1.513       .  S
C2159      C2160   1.408       .  A
C2160      H2164   1.085       .  S
C2161      H2171   1.111       .  S
C2161      H2172   1.110   1_556  S
C2161      H2173   1.110       .  S
C2163      H2174   1.111       .  S
C2163      H2175   1.099       .  S
C2163      H2176   1.104   1_554  S
C2177      C2178   1.399       .  A
C2177      C2182   1.414       .  A
C2177      H2187   1.084       .  S
C2178      C2183   1.493       .  S
C2178      C2179   1.404       .  A
C2179      C2184   1.510       .  S
C2179      C2180   1.398       .  A
C2180      C2181   1.424       .  A
C2180      H2185   1.078       .  S
C2181      C2182   1.443       .  A
C2182      C2186   1.511       .  S
C2183      C2188   1.403       .  A
C2183      C2192   1.397       .  A
C2184      H2200   1.108       .  S
C2184      H2201   1.111       .  S
C2184      H2202   1.111       .  S
C2186      H2197   1.111       .  S
C2186      H2198   1.103       .  S
C2186      H2199   1.106       .  S
C2188      C2193   1.509       .  S
C2188      C2189   1.401       .  A
C2189      C2190   1.425       .  A
C2189      H2194   1.077       .  S
C2190      C2191   1.446       .  A
C2191      C2195   1.513       .  S
C2191      C2192   1.412       .  A
C2192      H2196   1.085       .  S
C2193      H2203   1.111       .  S
C2193      H2204   1.108       .  S
C2193      H2205   1.111       .  S
C2195      H2206   1.111       .  S
C2195      H2207   1.104       .  S
C2195      H2208   1.105       .  S
C2209      C2210   1.389       .  A
C2209      C2214   1.405       .  A
C2209      H2219   1.085       .  S
C2210      C2215   1.477       .  S
C2210      C2211   1.398       .  A
C2211      C2216   1.507       .  S
C2211      C2212   1.400       .  A
C2212      C2213   1.424       .  A
C2212      H2217   1.082       .  S
C2213      C2214   1.451       .  A
C2214      C2218   1.517       .  S
C2215      C2220   1.401       .  A
C2215      C2224   1.393       .  A
C2216      H2232   1.110       .  S
C2216      H2233   1.108       .  S
C2216      H2234   1.111       .  S
C2218      H2229   1.111       .  S
C2218      H2230   1.103       .  S
C2218      H2231   1.104       .  S
C2220      C2225   1.511       .  S
C2220      C2221   1.397       .  A
C2221      C2222   1.423       .  A
C2221      H2226   1.074       .  S
C2222      C2223   1.441       .  A
C2223      C2227   1.512       .  S
C2223      C2224   1.408       .  A
C2224      H2228   1.084       .  S
C2225      H2235   1.111       .  S
C2225      H2236   1.110       .  S
C2225      H2237   1.108       .  S
C2227      H2238   1.111       .  S
C2227      H2239   1.107       .  S
C2227      H2240   1.108       .  S
C2241      C2242   1.395       .  A
C2241      C2246   1.405       .  A
C2241      H2251   1.085       .  S
C2242      C2247   1.485       .  S
C2242      C2243   1.403       .  A
C2243      C2248   1.509       .  S
C2243      C2244   1.401       .  A
C2244      C2245   1.424       .  A
C2244      H2249   1.075       .  S
C2245      C2246   1.441       .  A
C2246      C2250   1.508       .  S
C2247      C2252   1.402       .  A
C2247      C2256   1.396       .  A
C2248      H2264   1.109       .  S
C2248      H2265   1.111       .  S
C2248      H2266   1.111       .  S
C2250      H2261   1.110   1_655  S
C2250      H2262   1.110       .  S
C2250      H2263   1.094   1_655  S
C2252      C2257   1.510       .  S
C2252      C2253   1.400       .  A
C2253      C2254   1.425       .  A
C2253      H2258   1.076       .  S
C2254      C2255   1.440       .  A
C2255      C2259   1.507       .  S
C2255      C2256   1.409       .  A
C2256      H2260   1.084       .  S
C2257      H2267   1.111       .  S
C2257      H2268   1.109       .  S
C2257      H2269   1.110       .  S
C2259      H2270   1.111       .  S
C2259      H2271   1.099       .  S
C2259      H2272   1.105       .  S
C2273      C2274   1.393       .  A
C2273      C2278   1.407       .  A
C2273      H2283   1.086       .  S
C2274      C2279   1.487       .  S
C2274      C2275   1.402   1_556  A
C2275      C2280   1.506       .  S
C2275      C2276   1.403   1_554  A
C2276      C2277   1.425       .  A
C2276      H2281   1.082   1_556  S
C2277      C2278   1.448       .  A
C2278      C2282   1.515       .  S
C2279      C2284   1.409   1_556  A
C2279      C2288   1.401       .  A
C2280      H2296   1.110   1_554  S
C2280      H2297   1.110       .  S
C2280      H2298   1.111       .  S
C2282      H2293   1.110       .  S
C2282      H2294   1.112       .  S
C2282      H2295   1.092       .  S
C2284      C2289   1.507       .  S
C2284      C2285   1.405       .  A
C2285      C2286   1.410   1_554  A
C2285      H2290   1.083       .  S
C2286      C2287   1.422       .  A
C2287      C2291   1.508       .  S
C2287      C2288   1.407       .  A
C2288      H2292   1.084       .  S
C2289      H2299   1.111       .  S
C2289      H2300   1.110       .  S
C2289      H2301   1.110       .  S
C2291      H2302   1.109       .  S
C2291      H2303   1.110       .  S
C2291      H2304   1.111       .  S
C2305      C2306   1.389       .  A
C2305      C2310   1.400       .  A
C2305      H2315   1.086       .  S
C2306      C2311   1.484       .  S
C2306      C2307   1.404       .  A
C2307      C2312   1.507       .  S
C2307      C2308   1.408       .  A
C2308      C2309   1.426       .  A
C2308      H2313   1.080       .  S
C2309      C2310   1.441       .  A
C2310      C2314   1.500       .  S
C2311      C2316   1.401       .  A
C2311      C2320   1.394       .  A
C2312      H2328   1.110       .  S
C2312      H2329   1.108       .  S
C2312      H2330   1.111       .  S
C2314      H2325   1.111       .  S
C2314      H2326   1.110       .  S
C2314      H2327   1.077   1_554  S
C2316      C2321   1.510       .  S
C2316      C2317   1.399       .  A
C2317      C2318   1.427       .  A
C2317      H2322   1.083       .  S
C2318      C2319   1.449       .  A
C2319      C2323   1.511       .  S
C2319      C2320   1.413       .  A
C2320      H2324   1.085       .  S
C2321      H2331   1.111       .  S
C2321      H2332   1.111       .  S
C2321      H2333   1.107       .  S
C2323      H2334   1.111       .  S
C2323      H2335   1.102       .  S
C2323      H2336   1.106       .  S
C2337      C2338   1.393   1_556  A
C2337      C2342   1.409       .  A
C2337      H2347   1.086       .  S
C2338      C2343   1.485       .  S
C2338      C2339   1.403       .  A
C2339      C2344   1.510       .  S
C2339      C2340   1.403       .  A
C2340      C2341   1.425   1_554  A
C2340      H2345   1.082       .  S
C2341      C2342   1.451       .  A
C2342      C2346   1.518       .  S
C2343      C2348   1.403       .  A
C2343      C2352   1.395   1_554  A
C2344      H2360   1.110       .  S
C2344      H2361   1.106       .  S
C2344      H2362   1.111       .  S
C2346      H2357   1.112       .  S
C2346      H2358   1.110       .  S
C2346      H2359   1.092       .  S
C2348      C2353   1.510       .  S
C2348      C2349   1.403       .  A
C2349      C2350   1.425       .  A
C2349      H2354   1.073       .  S
C2350      C2351   1.442   1_554  A
C2351      C2355   1.513       .  S
C2351      C2352   1.408       .  A
C2352      H2356   1.085       .  S
C2353      H2363   1.111       .  S
C2353      H2364   1.110       .  S
C2353      H2365   1.106       .  S
C2355      H2366   1.111       .  S
C2355      H2367   1.107       .  S
C2355      H2368   1.108       .  S
C2369      C2370   1.402   1_554  A
C2369      C2374   1.404       .  A
C2369      H2379   1.084       .  S
C2370      C2375   1.483       .  S
C2370      C2371   1.411       .  A
C2371      C2376   1.506       .  S
C2371      C2372   1.404       .  A
C2372      C2373   1.404       .  A
C2372      H2377   1.084       .  S
C2373      C2374   1.416   1_556  A
C2374      C2378   1.508       .  S
C2375      C2380   1.411       .  A
C2375      C2384   1.401   1_556  A
C2376      H2392   1.110       .  S
C2376      H2393   1.110       .  S
C2376      H2394   1.111       .  S
C2378      H2389   1.111       .  S
C2378      H2390   1.110       .  S
C2378      H2391   1.107       .  S
C2380      C2385   1.506       .  S
C2380      C2381   1.405       .  A
C2381      C2382   1.404       .  A
C2381      H2386   1.084       .  S
C2382      C2383   1.418   1_556  A
C2383      C2387   1.509       .  S
C2383      C2384   1.403       .  A
C2384      H2388   1.085       .  S
C2385      H2395   1.111       .  S
C2385      H2396   1.110       .  S
C2385      H2397   1.110       .  S
C2387      H2398   1.110       .  S
C2387      H2399   1.107       .  S
C2387      H2400   1.111       .  S
C2401      C2402   1.400       .  A
C2401      C2406   1.400       .  A
C2401      H2411   1.085   1_556  S
C2402      C2407   1.471       .  S
C2402      C2403   1.408       .  A
C2403      C2408   1.507       .  S
C2403      C2404   1.399       .  A
C2404      C2405   1.403       .  A
C2404      H2409   1.085       .  S
C2405      C2406   1.414       .  A
C2406      C2410   1.508   1_556  S
C2407      C2412   1.408       .  A
C2407      C2416   1.399       .  A
C2408      H2424   1.110       .  S
C2408      H2425   1.110       .  S
C2408      H2426   1.111       .  S
C2410      H2421   1.111   1_554  S
C2410      H2422   1.110       .  S
C2410      H2423   1.108       .  S
C2412      C2417   1.506       .  S
C2412      C2413   1.400       .  A
C2413      C2414   1.404       .  A
C2413      H2418   1.084       .  S
C2414      C2415   1.417       .  A
C2415      C2419   1.509   1_556  S
C2415      C2416   1.399       .  A
C2416      H2420   1.085   1_556  S
C2417      H2427   1.111       .  S
C2417      H2428   1.110       .  S
C2417      H2429   1.110       .  S
C2419      H2430   1.110       .  S
C2419      H2431   1.107       .  S
C2419      H2432   1.111       .  S
C2433      C2434   1.399       .  A
C2433      C2438   1.403       .  A
C2433      H2443   1.085   1_556  S
C2434      C2439   1.489       .  S
C2434      C2435   1.414       .  A
C2435      C2440   1.505       .  S
C2435      C2436   1.410       .  A
C2436      C2437   1.404       .  A
C2436      H2441   1.084       .  S
C2437      C2438   1.420       .  A
C2438      C2442   1.508   1_556  S
C2439      C2444   1.404       .  A
C2439      C2448   1.392   1_556  A
C2440      H2456   1.110       .  S
C2440      H2457   1.110       .  S
C2440      H2458   1.111       .  S
C2442      H2453   1.111   1_554  S
C2442      H2454   1.110       .  S
C2442      H2455   1.103       .  S
C2444      C2449   1.506       .  S
C2444      C2445   1.407       .  A
C2445      C2446   1.424   1_556  A
C2445      H2450   1.084       .  S
C2446      C2447   1.449       .  A
C2447      C2451   1.513       .  S
C2447      C2448   1.410       .  A
C2448      H2452   1.085       .  S
C2449      H2459   1.111       .  S
C2449      H2460   1.110       .  S
C2449      H2461   1.111       .  S
C2451      H2462   1.104       .  S
C2451      H2463   1.104       .  S
C2451      H2464   1.111       .  S
C2465      C2466   1.402   1_554  A
C2465      C2470   1.405       .  A
C2465      H2475   1.084       .  S
C2466      C2471   1.476   1_556  S
C2466      C2467   1.409       .  A
C2467      C2472   1.508       .  S
C2467      C2468   1.399       .  A
C2468      C2469   1.404       .  A
C2468      H2473   1.085       .  S
C2469      C2470   1.415   1_556  A
C2470      C2474   1.507       .  S
C2471      C2476   1.401   1_554  A
C2471      C2480   1.393       .  A
C2472      H2488   1.110       .  S
C2472      H2489   1.109       .  S
C2472      H2490   1.111       .  S
C2474      H2485   1.110       .  S
C2474      H2486   1.110       .  S
C2474      H2487   1.107       .  S
C2476      C2481   1.509       .  S
C2476      C2477   1.398       .  A
C2477      C2478   1.424   1_556  A
C2477      H2482   1.075       .  S
C2478      C2479   1.440       .  A
C2479      C2483   1.513       .  S
C2479      C2480   1.406       .  A
C2480      H2484   1.084       .  S
C2481      H2491   1.111       .  S
C2481      H2492   1.110       .  S
C2481      H2493   1.109       .  S
C2483      H2494   1.111       .  S
C2483      H2495   1.107       .  S
C2483      H2496   1.107       .  S
