geometry optimzed in LAMMPS
_audit_creation_date              2020-11-30 
_audit_creation_method            'lammps2cif' 
_symmetry_space_group_name_H-M    'P1' 
_symmetry_Int_Tables_number       1 
_symmetry_cell_setting            triclinic 
loop_ 
_symmetry_equiv_pos_as_xyz 
  x,y,z 
_cell_length_a                    50.4739169 
_cell_length_b                    49.35371399776156 
_cell_length_c                    29.627082996479587 
_cell_angle_alpha                 90.15166988130993 
_cell_angle_beta                  89.76148122880025 
_cell_angle_gamma                 120.98717731540681 
loop_ 
_atom_site_label 
_atom_site_type_symbol 
_atom_site_fract_x 
_atom_site_fract_y 
_atom_site_fract_z 
_atom_site_charge 
Zr1        Zr  0.59437281  0.41536876  0.51319643     2.17500
O2          O  0.64209802  0.45212402  0.55218550    -0.52000
O3          O  0.58847662  0.36611648  0.54068630    -0.75200
O4          O  0.58253601  0.41699063  0.59352999    -0.82000
O5          O  0.62950020  0.40507204  0.40658040    -0.83700
O6          O  0.54079964  0.42293561  0.59661766    -0.79300
O7          O  0.63885482  0.41473976  0.48135736    -0.91000
O8          O  0.54176171  0.32606439  0.51680150    -0.76900
O9          O  0.54017136  0.38601908  0.52678027    -0.86400
O10         O  0.57216535  0.37703632  0.45429772    -0.86100
O11         O  0.57824038  0.45364946  0.51074508    -0.72900
O12         O  0.60729966  0.44544608  0.44411051    -0.85000
Zr13       Zr  0.51238094  0.41586432  0.39755660     2.26400
Zr14       Zr  0.52351344  0.42322160  0.52261871     2.06300
Zr15       Zr  0.58366528  0.40643221  0.38619144     2.10000
Zr16       Zr  0.51815213  0.34804557  0.46846127     1.78800
O17         O  0.61886764  0.44574722  0.33206236    -0.93800
O18         O  0.48002041  0.31983660  0.52759903    -0.41600
O19         O  0.52896931  0.37756807  0.39974999    -0.78300
O20         O  0.49929058  0.38400160  0.46499773    -0.97000
O21         O  0.53568980  0.45399826  0.45578121    -0.90300
O22         O  0.56709911  0.44376148  0.38311995    -0.93100
C23         C  0.56752417  0.33671699  0.53780897     1.00700
C24         C  0.64599669  0.40956076  0.44180630     1.13600
C25         C  0.56194823  0.42007394  0.61502753     1.04400
O26         O  0.48337903  0.39758280  0.57988235    -0.95300
O27         O  0.47399808  0.41497873  0.50248537    -0.91000
O28         O  0.48393213  0.43857798  0.43514580    -0.84100
C29         C  0.47162230  0.43321022  0.47484644     1.11000
O30         O  0.63717042  0.52057118  0.47778935    -0.97200
Zr31       Zr  0.58942075  0.48228169  0.44039064     1.88900
O32         O  0.52377508  0.46257871  0.35520826    -0.73900
O33         O  0.53264096  0.47388932  0.55008988    -0.53100
O34         O  0.58230955  0.52134373  0.48023425    -0.97800
O35         O  0.63274967  0.51207775  0.38898395    -0.55000
O36         O  0.57039932  0.50219681  0.37936604    -0.74400
C37         C  0.54651835  0.49125545  0.35341409     0.98000
O38         O  0.46067370  0.38052889  0.36842157    -0.63200
O39         O  0.58934781  0.37016311  0.33662155    -0.58000
O40         O  0.52370303  0.41194189  0.31875580    -0.94700
O41         O  0.54473264  0.38239385  0.32890191    -0.93100
O42         O  0.52002118  0.30930417  0.41958280    -0.93500
O43         O  0.46766291  0.30794707  0.44024096    -0.92300
C44         C  0.53875883  0.39938024  0.30372332     1.16800
H45         H  0.58045818  0.36324882  0.45293396     0.32700
H46         H  0.47712177  0.37177044  0.46881215     0.43600
H47         H  0.57248073  0.45399701  0.35405765     0.37100
H48         H  0.58787771  0.46851314  0.53522002     0.33600
H49         H  0.47922913  0.29945736  0.53073047     0.25400
H50         H  0.51499369  0.46835837  0.57052680     0.31300
H51         H  0.56514837  0.52146047  0.46433963     0.37200
H52         H  0.52405127  0.31871565  0.38902169     0.31700
H53         H  0.61131518  0.38137777  0.32719394     0.30600
H54         H  0.61744858  0.43353106  0.30468257     0.32200
H55         H  0.63431431  0.53281508  0.38570337     0.31200
H56         H  0.46367263  0.31832389  0.41480302     0.35200
H57         H  0.44743434  0.37238662  0.39567105     0.27900
H58         H  0.64515955  0.43897180  0.57429466     0.32200
H59         H  0.64204082  0.50772149  0.49788098     0.35000
H60         H  0.58688179  0.35297960  0.35665189     0.27600
H61         H  0.45476354  0.39477969  0.35417723     0.40500
H62         H  0.47728657  0.37505254  0.57856249     0.30600
H63         H  0.48996998  0.33142496  0.55574736     0.38200
H64         H  0.62531860  0.50179557  0.35923402     0.30000
H65         H  0.55066572  0.48185855  0.57041693     0.30100
H66         H  0.63703786  0.46560061  0.57070294     0.30400
Zr67       Zr  0.61094499  0.42716896  0.01879924     2.17500
O68         O  0.65983150  0.46538481  0.05381876    -0.52000
O69         O  0.60400437  0.37723646  0.04622858    -0.75200
O70         O  0.60310976  0.42705962  0.09973446    -0.82000
O71         O  0.64275905  0.41520704  0.91031525    -0.83700
O72         O  0.55905118  0.42864147  0.10577220    -0.79300
O73         O  0.65325234  0.42414672  0.98498692    -0.91000
O74         O  0.55466033  0.33878198  0.02995703    -0.76900
O75         O  0.55741335  0.40043148  0.03721804    -0.86400
O76         O  0.58454865  0.38684543  0.96397711    -0.86100
O77         O  0.59739331  0.46762770  0.01680881    -0.72900
O78         O  0.62196320  0.45524281  0.94825452    -0.85000
Zr79       Zr  0.52628592  0.42732299  0.91007253     2.26400
Zr80       Zr  0.54359399  0.43972021  0.03469684     2.06300
Zr81       Zr  0.59480356  0.41386240  0.89486624     2.10000
Zr82       Zr  0.53114852  0.36074359  0.98209611     1.78800
O83         O  0.63356248  0.43981558  0.83581329    -0.93800
O84         O  0.49427829  0.33769589  0.04410969    -0.41600
O85         O  0.54051049  0.38736386  0.91104113    -0.78300
O86         O  0.51514121  0.39877170  0.98012109    -0.97000
O87         O  0.55296000  0.46748010  0.96510289    -0.90300
O88         O  0.57995610  0.45254200  0.89124191    -0.93100
C89         C  0.58132486  0.34842349  0.04750287     1.00700
C90         C  0.65961170  0.41908382  0.94496240     1.13600
C91         C  0.58093672  0.42598034  0.12249829     1.04400
O92         O  0.51021506  0.43186308  0.09919285    -0.95300
O93         O  0.49272209  0.43017954  0.02018240    -0.91000
O94         O  0.49709335  0.44881276  0.94972530    -0.84100
C95         C  0.48674660  0.44497807  0.99072463     1.11000
O96         O  0.65360247  0.53120672  0.98247771    -0.97200
Zr97       Zr  0.60585044  0.49360424  0.94416351     1.88900
O98         O  0.53767164  0.47240558  0.86406342    -0.73900
O99         O  0.56294715  0.49413323  0.05765696    -0.53100
O100        O  0.60166546  0.53684884  0.97605174    -0.97800
O101        O  0.64906433  0.51881884  0.89139131    -0.55000
O102        O  0.58643644  0.51182648  0.88054618    -0.74400
C103        C  0.56115660  0.50012310  0.85729057     0.98000
O104        O  0.47258726  0.39295477  0.88800612    -0.63200
O105        O  0.58299083  0.36156290  0.87092161    -0.58000
O106        O  0.53028824  0.41585456  0.83013288    -0.94700
O107        O  0.57071977  0.40767101  0.82356046    -0.93100
O108        O  0.52845037  0.31724154  0.93917389    -0.93500
O109        O  0.47956768  0.32316827  0.95438253    -0.92300
C110        C  0.54869442  0.41009396  0.80713797     1.16800
H111        H  0.59193706  0.37229396  0.96237252     0.32700
H112        H  0.49314716  0.38729049  0.98573220     0.43600
H113        H  0.58424248  0.46127548  0.86117034     0.37100
H114        H  0.60877065  0.48317177  0.03990107     0.33600
H115        H  0.48885558  0.31536316  0.04527498     0.25400
H116        H  0.54445002  0.49621103  0.05780883     0.31300
H117        H  0.58363184  0.53562313  0.96091088     0.37200
H118        H  0.51969006  0.29922030  0.96048256     0.31700
H119        H  0.56195500  0.35152574  0.85800317     0.30600
H120        H  0.63147893  0.45777796  0.82596120     0.32200
H121        H  0.64007969  0.50950864  0.86165451     0.31200
H122        H  0.47468947  0.33559158  0.93344941     0.35200
H123        H  0.47146653  0.37339379  0.87721118     0.27900
H124        H  0.66264049  0.45382766  0.07881845     0.32200
H125        H  0.66069534  0.55184269  0.96779358     0.35000
H126        H  0.59667595  0.36556699  0.84459421     0.27600
H127        H  0.46091640  0.38677797  0.91681829     0.40500
H128        H  0.49860649  0.40875177  0.10455137     0.30600
H129        H  0.50663522  0.34733845  0.07170616     0.38200
H130        H  0.66221613  0.50997331  0.89887868     0.30000
H131        H  0.56824567  0.49472077  0.08992924     0.30100
H132        H  0.65579006  0.48084548  0.06887300     0.30400
Zr133      Zr  0.40027979  0.58620364  0.27034583     2.17500
O134        O  0.35134909  0.54792960  0.30544990    -0.52000
O135        O  0.40709035  0.63467198  0.30364584    -0.75200
O136        O  0.41006388  0.58461280  0.35107941    -0.82000
O137        O  0.36741381  0.59731235  0.16128471    -0.83700
O138        O  0.45247130  0.57984911  0.35481897    -0.79300
O139        O  0.35771424  0.58937246  0.23652211    -0.91000
O140        O  0.45525758  0.67406430  0.28393294    -0.76900
O141        O  0.45401717  0.61339209  0.28692548    -0.86400
O142        O  0.42546811  0.62688335  0.21540309    -0.86100
O143        O  0.41470296  0.54645413  0.26563560    -0.72900
O144        O  0.38955729  0.55894121  0.19889195    -0.85000
Zr145      Zr  0.48497154  0.58838025  0.15615400     2.26400
Zr146      Zr  0.46890200  0.57491599  0.28115773     2.06300
Zr147      Zr  0.41588354  0.60047568  0.14511639     2.10000
Zr148      Zr  0.47894204  0.65376434  0.23228949     1.78800
O149        O  0.37691671  0.57041646  0.08809550    -0.93800
O150        O  0.51612101  0.67741397  0.29352920    -0.41600
O151        O  0.47012199  0.62784346  0.16033950    -0.78300
O152        O  0.49607756  0.61667814  0.22691626    -0.97000
O153        O  0.45919860  0.54780677  0.21101128    -0.90300
O154        O  0.43113228  0.56230439  0.13958698    -0.93100
C155        C  0.42936796  0.66365779  0.30478156     1.00700
C156        C  0.35079988  0.59344076  0.19626998     1.13600
C157        C  0.43114304  0.58285257  0.37286219     1.04400
O158        O  0.50415959  0.58573382  0.34379649    -0.95300
O159        O  0.51973624  0.58666097  0.26094457    -0.91000
O160        O  0.51228495  0.56432811  0.19311074    -0.84100
C161        C  0.52290790  0.56867111  0.23373003     1.11000
O162        O  0.35813547  0.48121486  0.22841655    -0.97200
Zr163      Zr  0.40612214  0.52103736  0.19259552     1.88900
O164        O  0.47338174  0.54349492  0.10854120    -0.73900
O165        O  0.45320425  0.52098657  0.30212111    -0.53100
O166        O  0.41344680  0.48046044  0.22670459    -0.97800
O167        O  0.36412876  0.49401555  0.13851689    -0.55000
O168        O  0.42622819  0.50302935  0.12997878    -0.74400
C169        C  0.45065856  0.51490700  0.10476179     0.98000
O170        O  0.53840987  0.62408059  0.13345837    -0.63200
O171        O  0.42615564  0.65164822  0.11821461    -0.58000
O172        O  0.47976184  0.59904315  0.07682158    -0.94700
O173        O  0.43895370  0.60676307  0.07226237    -0.93100
O174        O  0.48042761  0.69670073  0.18978822    -0.93500
O175        O  0.53020387  0.69399381  0.20627384    -0.92300
C176        C  0.46066750  0.60406071  0.05479598     1.16800
H177        H  0.41765411  0.64110057  0.21522142     0.32700
H178        H  0.51813931  0.62896578  0.23159657     0.43600
H179        H  0.42655045  0.55347010  0.10955596     0.37100
H180        H  0.40379567  0.53065790  0.28864422     0.33600
H181        H  0.51845904  0.69839802  0.29838148     0.25400
H182        H  0.47208063  0.52256717  0.31475550     0.31300
H183        H  0.41335810  0.46738140  0.20124734     0.37200
H184        H  0.48319831  0.69250968  0.15793830     0.31700
H185        H  0.41814388  0.64769191  0.08695548     0.30600
H186        H  0.37336003  0.58609368  0.07283780     0.32200
H187        H  0.37324818  0.50388871  0.10903565     0.31200
H188        H  0.53867036  0.68201080  0.19155792     0.35200
H189        H  0.53993862  0.64475419  0.12949175     0.27900
H190        H  0.34829671  0.55976921  0.32992463     0.32200
H191        H  0.35406039  0.46067591  0.21639550     0.35000
H192        H  0.41177958  0.65587406  0.13535240     0.27600
H193        H  0.55063190  0.62677122  0.16094667     0.40500
H194        H  0.51425230  0.60878321  0.34908621     0.30600
H195        H  0.50498036  0.66510797  0.32070296     0.38200
H196        H  0.34971891  0.50142363  0.14571168     0.30000
H197        H  0.43942681  0.51626689  0.32854581     0.30100
H198        H  0.35560328  0.53291281  0.32122782     0.30400
Zr199      Zr  0.40382546  0.58268037  0.76399141     2.17500
O200        O  0.35594680  0.54413169  0.80127857    -0.52000
O201        O  0.41022814  0.63134045  0.79458147    -0.75200
O202        O  0.41573401  0.58399377  0.84463413    -0.82000
O203        O  0.37309265  0.59736903  0.65675854    -0.83700
O204        O  0.45774308  0.57854186  0.84838845    -0.79300
O205        O  0.36123556  0.58633555  0.73104076    -0.91000
O206        O  0.45912007  0.67069765  0.77761768    -0.76900
O207        O  0.45742992  0.60926053  0.78064942    -0.86400
O208        O  0.42929948  0.62301613  0.70849729    -0.86100
O209        O  0.41785233  0.54269305  0.75998518    -0.72900
O210        O  0.39267991  0.55525227  0.69264422    -0.85000
Zr211      Zr  0.48852304  0.58294865  0.65172922     2.26400
Zr212      Zr  0.47211914  0.57059662  0.77509756     2.06300
Zr213      Zr  0.41963414  0.59627937  0.63830106     2.10000
Zr214      Zr  0.48263304  0.64965563  0.72643916     1.78800
O215        O  0.38727279  0.55996627  0.57920230    -0.93800
O216        O  0.51995608  0.67234083  0.78774084    -0.41600
O217        O  0.47380786  0.62282632  0.65550202    -0.78300
O218        O  0.49971357  0.61236139  0.72118142    -0.97000
O219        O  0.46188358  0.54237540  0.70595004    -0.90300
O220        O  0.43444635  0.55770296  0.63386979    -0.93100
C221        C  0.43250183  0.66022653  0.79627783     1.00700
C222        C  0.35550743  0.59231538  0.69108337     1.13600
C223        C  0.43697441  0.58245239  0.86640194     1.04400
O224        O  0.50556685  0.57648421  0.83813688    -0.95300
O225        O  0.52386921  0.58362832  0.75885097    -0.91000
O226        O  0.51781478  0.56157807  0.69089827    -0.84100
C227        C  0.52890130  0.56704008  0.73140092     1.11000
O228        O  0.36129123  0.47804102  0.72574917    -0.97200
Zr229      Zr  0.40860174  0.51681762  0.68722663     1.88900
O230        O  0.47548163  0.53737583  0.60473377    -0.73900
O231        O  0.45392562  0.51538927  0.79120120    -0.53100
O232        O  0.41574271  0.47538237  0.71849341    -0.97800
O233        O  0.36478872  0.49048060  0.63592698    -0.55000
O234        O  0.42636669  0.49887411  0.62178544    -0.74400
C235        C  0.45126522  0.51017752  0.59770364     0.98000
O236        O  0.54134871  0.61627058  0.62472296    -0.63200
O237        O  0.41390141  0.63502733  0.59542462    -0.58000
O238        O  0.48099907  0.59076668  0.57295431    -0.94700
O239        O  0.46056752  0.62109982  0.58305514    -0.93100
O240        O  0.48374329  0.69153580  0.68154000    -0.93500
O241        O  0.53348110  0.69023185  0.69971444    -0.92300
C242        C  0.46777470  0.60507040  0.55752524     1.16800
H243        H  0.42174676  0.63744975  0.70779003     0.32700
H244        H  0.52179400  0.62461024  0.72569482     0.43600
H245        H  0.42989382  0.54913231  0.60370769     0.37100
H246        H  0.40689981  0.52710284  0.78322574     0.33600
H247        H  0.51619624  0.68820570  0.80207078     0.25400
H248        H  0.47298867  0.51469875  0.79567547     0.31300
H249        H  0.41377295  0.46181472  0.69251532     0.37200
H250        H  0.46940578  0.69665097  0.69692638     0.31700
H251        H  0.43458471  0.65450260  0.59558460     0.30600
H252        H  0.37101984  0.56510954  0.57388356     0.32200
H253        H  0.36173723  0.46919449  0.63108526     0.31200
H254        H  0.53566275  0.68248545  0.66986946     0.35200
H255        H  0.54621118  0.60139905  0.60966243     0.27900
H256        H  0.35098429  0.55682204  0.82173090     0.32200
H257        H  0.35610538  0.45720970  0.71343198     0.35000
H258        H  0.41074501  0.62742253  0.56382945     0.27600
H259        H  0.53993016  0.62876254  0.59977287     0.40500
H260        H  0.51845625  0.59956993  0.84335652     0.30600
H261        H  0.51284201  0.65524382  0.81039795     0.38200
H262        H  0.37274516  0.50130781  0.60661732     0.30000
H263        H  0.44456255  0.51174497  0.82165762     0.30100
H264        H  0.36181795  0.53221909  0.82165143     0.30400
Zr265      Zr  0.09846118  0.58895198  0.20204104     2.17500
O266        O  0.07838038  0.62155765  0.22909962    -0.52000
O267        O  0.06693918  0.54262729  0.24772179    -0.75200
O268        O  0.04732401  0.56365236  0.16359250    -0.82000
O269        O  0.16423561  0.61094714  0.28425520    -0.83700
O270        O  0.06253865  0.59044112  0.09923589    -0.79300
O271        O  0.11407586  0.59896237  0.28098175    -0.91000
O272        O  0.07644045  0.50441487  0.22490309    -0.76900
O273        O  0.08556069  0.55130216  0.14358102    -0.86400
O274        O  0.12728479  0.56371882  0.21617167    -0.86100
O275        O  0.11578036  0.62066667  0.13453666    -0.72900
O276        O  0.15283023  0.62910428  0.20128374    -0.85000
Zr277      Zr  0.18381238  0.59425623  0.08671803     2.26400
Zr278      Zr  0.10337432  0.58187710  0.07609606     2.06300
Zr279      Zr  0.18072944  0.60252956  0.21258045     2.10000
Zr280      Zr  0.11249895  0.52489667  0.15956912     1.78800
O281        O  0.22470580  0.65122005  0.24102389    -0.93800
O282        O  0.06405440  0.48349445  0.12709538    -0.41600
O283        O  0.16689310  0.56362686  0.15511166    -0.78300
O284        O  0.12968227  0.55353618  0.08881507    -0.97000
O285        O  0.15690029  0.62143776  0.07456273    -0.90300
O286        O  0.19788240  0.63242423  0.14528268    -0.99100
C287        C  0.06346915  0.51506297  0.25150263     1.00700
C288        C  0.13917490  0.60640018  0.30207853     1.13600
C289        C  0.04123495  0.56962560  0.12385032     1.04400
O290        O  0.07306925  0.52918027  0.04336990    -0.95300
O291        O  0.13587106  0.60917037  0.01293192    -0.91000
O292        O  0.16649451  0.58865712  0.00809322    -0.84100
C293        C  0.15056021  0.59929860  0.98986964     1.11000
O294        O  0.15640641  0.69530017  0.16542782    -0.97200
Zr295      Zr  0.17034518  0.65888157  0.13279792     1.88900
O296        O  0.22500059  0.64493090  0.05767270    -0.73900
O297        O  0.07349653  0.58269577  0.01194903    -0.53100
O298        O  0.15739517  0.68432621  0.07356524    -0.97800
O299        O  0.21083799  0.70048370  0.17889747    -0.55000
O300        O  0.21574940  0.68252862  0.08393835    -0.74400
C301        C  0.23176852  0.67379177  0.06098519     0.98000
O302        O  0.19997182  0.56262225  0.04484357    -0.63200
O303        O  0.18835332  0.57091849  0.26842630    -0.58000
O304        O  0.22811388  0.59359966  0.11940243    -0.94700
O305        O  0.22516550  0.59823017  0.19509359    -0.93100
O306        O  0.13350154  0.50024454  0.20702494    -0.93500
O307        O  0.11870300  0.48545607  0.11913355    -0.92300
C308        C  0.23827371  0.59535180  0.15979144     1.16800
H309        H  0.12346418  0.55437971  0.24581861     0.32700
H310        H  0.12572823  0.53881215  0.06457739     0.43600
H311        H  0.21994542  0.64689217  0.14662129     0.37100
H312        H  0.10561201  0.63263193  0.13149408     0.33600
H313        H  0.06027963  0.46368015  0.14134542     0.25400
H314        H  0.05173341  0.56613777  0.01791962     0.31300
H315        H  0.16918033  0.68449799  0.04665743     0.37200
H316        H  0.11518098  0.48092029  0.21894209     0.31700
H317        H  0.16985162  0.56169660  0.28814789     0.30600
H318        H  0.23385869  0.64420889  0.26437841     0.32200
H319        H  0.23046717  0.70310327  0.16739556     0.31200
H320        H  0.13896490  0.49774726  0.10374868     0.35200
H321        H  0.18084553  0.54538353  0.03096944     0.27900
H322        H  0.06127826  0.60756499  0.24974798     0.32200
H323        H  0.17051238  0.71605351  0.15126732     0.35000
H324        H  0.18619473  0.55262929  0.25132109     0.27600
H325        H  0.21236117  0.57611872  0.01922822     0.40500
H326        H  0.08250793  0.53090630  0.01333641     0.30600
H327        H  0.04800253  0.48695410  0.14036113     0.38200
H328        H  0.20813357  0.69085096  0.20908656     0.30000
H329        H  0.07388416  0.60291632  0.01430053     0.30100
H330        H  0.06801775  0.62416437  0.20258613     0.30400
Zr331      Zr  0.09803314  0.58271014  0.69675252     2.17500
O332        O  0.07781681  0.61521286  0.72376621    -0.52000
O333        O  0.06476496  0.53453373  0.73827333    -0.75200
O334        O  0.04858910  0.56284408  0.65422120    -0.82000
O335        O  0.15847363  0.59695744  0.78366150    -0.83700
O336        O  0.06599314  0.58744357  0.58779597    -0.79300
O337        O  0.11086902  0.59158297  0.77695767    -0.91000
O338        O  0.07554596  0.49731405  0.71501882    -0.76900
O339        O  0.08737807  0.54649784  0.63700669    -0.86400
O340        O  0.12706456  0.55771848  0.71166834    -0.86100
O341        O  0.11709593  0.61581721  0.63110978    -0.72900
O342        O  0.15227018  0.62331594  0.70029701    -0.85000
Zr343      Zr  0.18859944  0.59308686  0.58625093     2.26400
Zr344      Zr  0.10757465  0.57874368  0.57138531     2.06300
Zr345      Zr  0.18059272  0.59715473  0.71207788     2.10000
Zr346      Zr  0.11486956  0.52061585  0.65350499     1.78800
O347        O  0.21887934  0.64497780  0.75088106    -0.93800
O348        O  0.06915287  0.48005247  0.61418917    -0.41600
O349        O  0.16936474  0.56016035  0.65257437    -0.78300
O350        O  0.13460906  0.55132165  0.58463784    -0.97000
O351        O  0.16068980  0.61911788  0.57392676    -0.90300
O352        O  0.19957931  0.62928514  0.64665031    -0.93100
C353        C  0.06122622  0.50687638  0.74091171     1.00700
C354        C  0.13386022  0.59457081  0.79989120     1.13600
C355        C  0.04381175  0.56994782  0.61419029     1.04400
O356        O  0.07843060  0.52650408  0.53702265    -0.95300
O357        O  0.14252833  0.60862173  0.51172647    -0.91000
O358        O  0.17378927  0.58891115  0.50650694    -0.84100
C359        C  0.15755476  0.59925195  0.48854937     1.11000
O360        O  0.15584760  0.68967251  0.66789493    -0.97200
Zr361      Zr  0.17126882  0.65489833  0.63356338     1.88900
O362        O  0.22814227  0.64522517  0.55749557    -0.73900
O363        O  0.08091891  0.57977289  0.50325721    -0.53100
O364        O  0.15675974  0.68053496  0.57684060    -0.97800
O365        O  0.21132453  0.69599135  0.68077098    -0.55000
O366        O  0.21525234  0.68059884  0.58229052    -0.74400
C367        C  0.23227378  0.67326730  0.55914866     0.98000
O368        O  0.20585956  0.56230365  0.54423631    -0.63200
O369        O  0.18981519  0.56330968  0.76131008    -0.58000
O370        O  0.23359286  0.59544730  0.62251199    -0.94700
O371        O  0.22870800  0.59895479  0.69795321    -0.93100
O372        O  0.13407609  0.49525057  0.70308855    -0.93500
O373        O  0.12321328  0.48160654  0.61608202    -0.92300
C374        C  0.24321094  0.59746876  0.66341605     1.16800
H375        H  0.12199517  0.54714727  0.74049460     0.32700
H376        H  0.13156784  0.53735939  0.55971639     0.43600
H377        H  0.22148314  0.64426179  0.64905661     0.37100
H378        H  0.10659494  0.62742136  0.62769880     0.33600
H379        H  0.06065069  0.46131774  0.63413448     0.25400
H380        H  0.05859911  0.56466617  0.50822073     0.31300
H381        H  0.14360095  0.66352644  0.55528325     0.37200
H382        H  0.12916545  0.49898837  0.73403350     0.31700
H383        H  0.17055325  0.55096267  0.77898978     0.30600
H384        H  0.23662319  0.65547243  0.72979673     0.32200
H385        H  0.23054098  0.69626919  0.67290456     0.31200
H386        H  0.13738038  0.49314205  0.59068828     0.35200
H387        H  0.20886157  0.54958894  0.56719218     0.27900
H388        H  0.06750553  0.61790700  0.69726132     0.32200
H389        H  0.17004842  0.71092361  0.65520108     0.35000
H390        H  0.19014241  0.54752837  0.74097232     0.27600
H391        H  0.18744365  0.54646685  0.52729688     0.40500
H392        H  0.05671429  0.51845843  0.54606525     0.30600
H393        H  0.05389349  0.48691316  0.61631581     0.38200
H394        H  0.20626308  0.68731404  0.71177053     0.30000
H395        H  0.08297906  0.60084323  0.50305508     0.30100
H396        H  0.09645437  0.63634938  0.72826100     0.30400
Zr397      Zr  0.90431511  0.42331167  0.44656139     2.17500
O398        O  0.92195836  0.38906678  0.47521532    -0.52000
O399        O  0.93854813  0.47038334  0.48854685    -0.75200
O400        O  0.95543353  0.44067966  0.41090348    -0.82000
O401        O  0.84252094  0.41009481  0.53219693    -0.83700
O402        O  0.94926630  0.44411990  0.33551562    -0.79300
O403        O  0.88877021  0.41236370  0.52589514    -0.91000
O404        O  0.92970900  0.50927449  0.46758476    -0.76900
O405        O  0.91693911  0.46105088  0.38844750    -0.86400
O406        O  0.87696997  0.45000197  0.46188455    -0.86100
O407        O  0.88628460  0.39230228  0.37899138    -0.72900
O408        O  0.84985448  0.38403955  0.44807952    -0.85000
Zr409      Zr  0.81774650  0.41798341  0.33414279     2.26400
Zr410      Zr  0.89761891  0.43047559  0.32137421     2.06300
Zr411      Zr  0.82315726  0.41205009  0.45990931     2.10000
Zr412      Zr  0.89095404  0.48837396  0.40523172     1.78800
O413        O  0.78396823  0.36435248  0.49789909    -0.93800
O414        O  0.93682996  0.52987404  0.36704925    -0.41600
O415        O  0.83620961  0.45000544  0.40153847    -0.78300
O416        O  0.87189279  0.45888994  0.33524927    -0.97000
O417        O  0.84447338  0.39085035  0.32074902    -0.90300
O418        O  0.80477511  0.38094267  0.39363180    -0.93100
C419        C  0.94296378  0.49824660  0.49276502     1.00700
C420        C  0.86600528  0.41037949  0.54858427     1.13600
C421        C  0.96566347  0.44699424  0.36978747     1.04400
O422        O  0.92835451  0.47721253  0.27487244    -0.95300
O423        O  0.87509828  0.42137816  0.24834431    -0.91000
O424        O  0.82787190  0.41656084  0.25344535    -0.84100
C425        C  0.85006683  0.41704064  0.23119877     1.11000
O426        O  0.84780450  0.31767877  0.40506812    -0.97200
Zr427      Zr  0.83182497  0.35404681  0.37985843     1.88900
O428        O  0.77594015  0.36659285  0.30736885    -0.73900
O429        O  0.91229454  0.39684230  0.28171470    -0.53100
O430        O  0.84129303  0.32606891  0.32005343    -0.97800
O431        O  0.79373673  0.31435668  0.43102556    -0.55000
O432        O  0.78555364  0.32946164  0.33377750    -0.74400
C433        C  0.76933799  0.33777278  0.31087470     0.98000
O434        O  0.80461724  0.45180776  0.29194719    -0.63200
O435        O  0.81700564  0.44859952  0.50811137    -0.58000
O436        O  0.77239400  0.41550212  0.36842260    -0.94700
O437        O  0.77540604  0.41052844  0.44401070    -0.93100
O438        O  0.87266498  0.51348594  0.45739107    -0.93500
O439        O  0.88325471  0.52757093  0.36750862    -0.92300
C440        C  0.76174717  0.41249845  0.40882613     1.16800
H441        H  0.88184940  0.45999080  0.49115438     0.32700
H442        H  0.87605860  0.47343632  0.31072822     0.43600
H443        H  0.78274941  0.36649467  0.39601369     0.37100
H444        H  0.89775680  0.38184100  0.37366323     0.33600
H445        H  0.95295083  0.53932943  0.39062890     0.25400
H446        H  0.92441130  0.40944174  0.25529287     0.31300
H447        H  0.83404306  0.33109783  0.29205739     0.37200
H448        H  0.89028030  0.53541694  0.46064556     0.31700
H449        H  0.83727803  0.46177896  0.52290971     0.30600
H450        H  0.77879514  0.37203247  0.52552805     0.32200
H451        H  0.78559793  0.29408593  0.41465816     0.31200
H452        H  0.86354437  0.51499060  0.35100639     0.35200
H453        H  0.80381106  0.46598367  0.31490322     0.27900
H454        H  0.94255513  0.40369107  0.48827472     0.32200
H455        H  0.85216202  0.32222077  0.43765048     0.35000
H456        H  0.81548306  0.46325902  0.48700411     0.27600
H457        H  0.82331750  0.46586168  0.27393241     0.40500
H458        H  0.94657159  0.47606323  0.26532879     0.30600
H459        H  0.94365063  0.51857257  0.34692647     0.38200
H460        H  0.77630286  0.31815821  0.43128926     0.30000
H461        H  0.89279256  0.37954749  0.26879361     0.30100
H462        H  0.92628926  0.38033564  0.44793177     0.30400
Zr463      Zr  0.90757832  0.41204210  0.94963758     2.17500
O464        O  0.92601749  0.37778071  0.97513952    -0.52000
O465        O  0.94240640  0.45837375  0.99278764    -0.75200
O466        O  0.95790540  0.43553467  0.90776467    -0.82000
O467        O  0.84021147  0.37727106  0.02363479    -0.83700
O468        O  0.94092250  0.40959132  0.84292501    -0.79300
O469        O  0.89179900  0.40622200  0.02919772    -0.91000
O470        O  0.93467230  0.49773423  0.97089984    -0.76900
O471        O  0.92061152  0.44998762  0.89170979    -0.86400
O472        O  0.88047309  0.43905945  0.96655564    -0.86100
O473        O  0.88792755  0.38060866  0.88208639    -0.72900
O474        O  0.85274083  0.37342293  0.95024710    -0.85000
Zr475      Zr  0.82195243  0.41044996  0.83942201     2.26400
Zr476      Zr  0.90066259  0.41978119  0.82435019     2.06300
Zr477      Zr  0.82635871  0.40137642  0.96538225     2.10000
Zr478      Zr  0.89544316  0.47791358  0.91015471     1.78800
O479        O  0.78071713  0.36052978  0.00462477    -0.93800
O480        O  0.94251314  0.51880513  0.87363802    -0.41600
O481        O  0.84053148  0.44051994  0.90816597    -0.78300
O482        O  0.87640145  0.44975157  0.83939078    -0.97000
O483        O  0.84685557  0.38170775  0.82448746    -0.90300
O484        O  0.80739957  0.37207425  0.89753575    -0.93100
C485        C  0.94785372  0.48669936  0.99604221     1.00700
C486        C  0.86463564  0.39308522  0.04692772     1.13600
C487        C  0.96307141  0.42943682  0.86727349     1.04400
O488        O  0.93317162  0.47318449  0.79512315    -0.95300
O489        O  0.86970182  0.39690002  0.75867912    -0.91000
O490        O  0.83566926  0.41371876  0.75958567    -0.84100
C491        C  0.85188696  0.40423631  0.73893081     1.11000
O492        O  0.84207530  0.30305569  0.91040751    -0.97200
Zr493      Zr  0.83302821  0.34395379  0.88214835     1.88900
O494        O  0.77921991  0.36078582  0.80977880    -0.73900
O495        O  0.92638563  0.41568599  0.75689395    -0.53100
O496        O  0.84606001  0.31791226  0.82365125    -0.97800
O497        O  0.79235628  0.30562273  0.93186337    -0.55000
O498        O  0.78856627  0.32249219  0.83205194    -0.74400
C499        C  0.77242665  0.33180778  0.81104535     0.98000
O500        O  0.81079035  0.44736468  0.80181028    -0.63200
O501        O  0.83167897  0.43805979  0.02488225    -0.58000
O502        O  0.77815843  0.41046821  0.87402916    -0.94700
O503        O  0.78120550  0.40529859  0.94966564    -0.93100
O504        O  0.88018391  0.50487679  0.96387659    -0.93500
O505        O  0.88856316  0.51819840  0.87421048    -0.92300
C506        C  0.76818165  0.40851695  0.91459515     1.16800
H507        H  0.88559514  0.44901165  0.99585268     0.32700
H508        H  0.88055820  0.46463695  0.81536459     0.43600
H509        H  0.78525060  0.35820698  0.89933886     0.37100
H510        H  0.89748019  0.36814155  0.87766018     0.33600
H511        H  0.95139670  0.53667465  0.89523790     0.25400
H512        H  0.94865600  0.43140233  0.76054289     0.31300
H513        H  0.85755177  0.33443279  0.80059889     0.37200
H514        H  0.85730820  0.49270031  0.96348804     0.31700
H515        H  0.81429596  0.44161467  0.02017725     0.30600
H516        H  0.77715992  0.37175191  0.02947869     0.32200
H517        H  0.77357457  0.30598383  0.92354866     0.31200
H518        H  0.86588374  0.50870360  0.87251755     0.35200
H519        H  0.81288186  0.46236073  0.82578786     0.27900
H520        H  0.91265348  0.35749449  0.95936434     0.32200
H521        H  0.82505623  0.28288747  0.89811968     0.35000
H522        H  0.82629794  0.42557068  0.05306746     0.27600
H523        H  0.82874146  0.46016656  0.78178035     0.40500
H524        H  0.95450011  0.47898721  0.80303114     0.30600
H525        H  0.95694358  0.51086243  0.87448466     0.38200
H526        H  0.79783709  0.31545052  0.96218268     0.30000
H527        H  0.92479611  0.39487097  0.75898567     0.30100
H528        H  0.91956258  0.37324992  0.00716170     0.30400
Zr529      Zr  0.59009386  0.10205101  0.06618639     2.17500
O530        O  0.62413754  0.08420927  0.03878394    -0.52000
O531        O  0.54536101  0.06674848  0.02233705    -0.75200
O532        O  0.56886390  0.04998127  0.10610912    -0.82000
O533        O  0.60634448  0.16745165  0.98200388    -0.83700
O534        O  0.59046564  0.06569102  0.17417723    -0.79300
O535        O  0.60054108  0.11857741  0.98649599    -0.91000
O536        O  0.50603228  0.07329555  0.04489355    -0.76900
O537        O  0.55203917  0.08753395  0.12355713    -0.86400
O538        O  0.56377947  0.12966180  0.05052239    -0.86100
O539        O  0.61998377  0.12098049  0.13438639    -0.72900
O540        O  0.62774613  0.15811452  0.06624604    -0.85000
Zr541      Zr  0.59115887  0.18864648  0.17924503     2.26400
Zr542      Zr  0.58107966  0.10736321  0.19127160     2.06300
Zr543      Zr  0.60024783  0.18491903  0.05376912     2.10000
Zr544      Zr  0.52513975  0.11378280  0.10613638     1.78800
O545        O  0.64745266  0.22716466  0.01946334    -0.93800
O546        O  0.48489015  0.06654817  0.14395399    -0.41600
O547        O  0.56160643  0.17001596  0.11048557    -0.78300
O548        O  0.55246063  0.13280370  0.17715555    -0.97000
O549        O  0.61861439  0.16224265  0.19301422    -0.90300
O550        O  0.62893102  0.20353842  0.12134464    -0.93100
C551        C  0.51739057  0.06026748  0.01950004     1.00700
C552        C  0.60499993  0.14316036  0.96442407     1.13600
C553        C  0.57401660  0.04378716  0.14651291     1.04400
O554        O  0.53045654  0.06525446  0.21646375    -0.95300
O555        O  0.58171109  0.12773464  0.26428619    -0.91000
O556        O  0.58908388  0.17711279  0.25992677    -0.84100
C557        C  0.58550587  0.15303469  0.28199980     1.11000
O558        O  0.69187818  0.16579511  0.09528133    -0.97200
Zr559      Zr  0.65599756  0.17676499  0.13506001     1.88900
O560        O  0.64037638  0.23048036  0.21032686    -0.73900
O561        O  0.60227610  0.09414974  0.25576991    -0.53100
O562        O  0.68082982  0.16089850  0.19063669    -0.97800
O563        O  0.69737549  0.22294897  0.09631298    -0.55000
O564        O  0.67690247  0.21862731  0.19060771    -0.74400
C565        C  0.66787407  0.23504896  0.21208494     0.98000
O566        O  0.55667819  0.20139572  0.21954895    -0.63200
O567        O  0.56518675  0.18865223  0.00133531    -0.58000
O568        O  0.59209265  0.23425937  0.14467302    -0.94700
O569        O  0.60091554  0.23326082  0.06950199    -0.93100
O570        O  0.49857178  0.12936075  0.05321037    -0.93500
O571        O  0.48702474  0.12337428  0.14128042    -0.92300
C572        C  0.59655377  0.24575550  0.10450652     1.16800
H573        H  0.55448135  0.12465445  0.02095750     0.32700
H574        H  0.53767597  0.12788080  0.20121321     0.43600
H575        H  0.64269679  0.22617473  0.12025937     0.37100
H576        H  0.63171329  0.11072987  0.13876485     0.33600
H577        H  0.46621954  0.05954114  0.12530427     0.25400
H578        H  0.58908324  0.07101120  0.26000954     0.31300
H579        H  0.70203276  0.17937851  0.19363335     0.37200
H580        H  0.50630928  0.12799964  0.02303605     0.31700
H581        H  0.54965483  0.18957545  0.02074416     0.30600
H582        H  0.64057839  0.23259161  0.99144457     0.32200
H583        H  0.69453328  0.24078941  0.10423874     0.31200
H584        H  0.49924242  0.14522263  0.15310638     0.35200
H585        H  0.54511731  0.20507801  0.19583857     0.27900
H586        H  0.61330035  0.06138697  0.04602325     0.32200
H587        H  0.71222208  0.17936833  0.10973394     0.35000
H588        H  0.57734756  0.21002129  0.98793062     0.27600
H589        H  0.54094296  0.18124386  0.23364412     0.40500
H590        H  0.53477912  0.05220222  0.23698653     0.30600
H591        H  0.49049085  0.05029887  0.13862307     0.38200
H592        H  0.69202173  0.21903639  0.06389783     0.30000
H593        H  0.62249851  0.09767456  0.24544643     0.30100
H594        H  0.64201107  0.09404079  0.05955425     0.30400
Zr595      Zr  0.58904988  0.09866139  0.56317503     2.17500
O596        O  0.61975400  0.07699442  0.53525076    -0.52000
O597        O  0.54391646  0.06616074  0.51755980    -0.75200
O598        O  0.56513583  0.04665324  0.60243435    -0.82000
O599        O  0.62519667  0.16682595  0.49058952    -0.83700
O600        O  0.58945688  0.06295703  0.66824789    -0.79300
O601        O  0.59596217  0.11418364  0.48410430    -0.91000
O602        O  0.50704251  0.07721254  0.53762538    -0.76900
O603        O  0.55182958  0.08613855  0.62088002    -0.86400
O604        O  0.56465985  0.12837527  0.54697392    -0.86100
O605        O  0.61976494  0.11753500  0.63086339    -0.72900
O606        O  0.62847340  0.15429990  0.56327626    -0.85000
Zr607      Zr  0.59409619  0.18787726  0.67509769     2.26400
Zr608      Zr  0.58135397  0.10538280  0.68828550     2.06300
Zr609      Zr  0.60303272  0.18307229  0.54890470     2.10000
Zr610      Zr  0.52651938  0.11400473  0.60331400     1.78800
O611        O  0.64585868  0.23077047  0.51575972    -0.93800
O612        O  0.48553017  0.06500023  0.63649428    -0.41600
O613        O  0.56487901  0.16950171  0.60632986    -0.78300
O614        O  0.55415211  0.13251991  0.67421499    -0.97000
O615        O  0.62008742  0.16003920  0.68881629    -0.90300
O616        O  0.63170697  0.20182569  0.61688346    -0.93100
C617        C  0.51742836  0.06334986  0.51204102     1.00700
C618        C  0.60944553  0.14203211  0.46688827     1.13600
C619        C  0.57059189  0.04076026  0.64263463     1.04400
O620        O  0.52954133  0.07492059  0.72045319    -0.95300
O621        O  0.60670529  0.13804696  0.75202021    -0.91000
O622        O  0.58890066  0.17157122  0.75464004    -0.84100
C623        C  0.59844199  0.15476660  0.77374515     1.11000
O624        O  0.69230753  0.15950027  0.59609745    -0.97200
Zr625      Zr  0.65723362  0.17344699  0.63145559     1.88900
O626        O  0.64386345  0.23032264  0.70356704    -0.73900
O627        O  0.58295199  0.07651502  0.75409779    -0.53100
O628        O  0.68407946  0.16081744  0.68809141    -0.97800
O629        O  0.69667125  0.21703472  0.58651678    -0.55000
O630        O  0.67950146  0.21686516  0.68543688    -0.74400
C631        C  0.67119596  0.23449466  0.70531560     0.98000
O632        O  0.56526437  0.20704957  0.71684232    -0.63200
O633        O  0.57051222  0.18007146  0.48611595    -0.58000
O634        O  0.58848391  0.22943100  0.63931305    -0.94700
O635        O  0.59533119  0.22681063  0.56377651    -0.93100
O636        O  0.50222524  0.13602957  0.55738703    -0.93500
O637        O  0.48758488  0.11931720  0.64467056    -0.92300
C638        C  0.58977435  0.23881589  0.59837009     1.16800
H639        H  0.55563681  0.12428079  0.51728221     0.32700
H640        H  0.53979757  0.12874407  0.69844010     0.43600
H641        H  0.64585900  0.22438437  0.61531537     0.37100
H642        H  0.63126321  0.10701465  0.63502391     0.33600
H643        H  0.46921993  0.05572457  0.61315987     0.25400
H644        H  0.56679799  0.05409672  0.74932281     0.31300
H645        H  0.66811281  0.14829265  0.71108458     0.37200
H646        H  0.50533629  0.13156691  0.52583619     0.31700
H647        H  0.55900979  0.19000672  0.49740643     0.30600
H648        H  0.63634910  0.23728394  0.49229418     0.32200
H649        H  0.69875725  0.23643358  0.59993072     0.31200
H650        H  0.49906322  0.13497873  0.66871949     0.35200
H651        H  0.54757272  0.18794821  0.73043193     0.27900
H652        H  0.60440607  0.05642879  0.52175704     0.32200
H653        H  0.71297729  0.17448375  0.60862793     0.35000
H654        H  0.58502411  0.19506412  0.46333995     0.27600
H655        H  0.57862683  0.21902618  0.74265696     0.40500
H656        H  0.53149784  0.08346473  0.75133915     0.30600
H657        H  0.49383093  0.05071442  0.63742075     0.38200
H658        H  0.68677103  0.21494716  0.55690887     0.30000
H659        H  0.60280090  0.07704298  0.75201839     0.30100
H660        H  0.62684944  0.07131872  0.56281199     0.30400
Zr661      Zr  0.42404950  0.90728305  0.31027798     2.17500
O662        O  0.39643914  0.92963901  0.27382157    -0.52000
O663        O  0.47088344  0.93760063  0.26672765    -0.75200
O664        O  0.44683014  0.96059329  0.34570718    -0.82000
O665        O  0.40826605  0.83863384  0.23327237    -0.83700
O666        O  0.41971080  0.94705641  0.40953733    -0.79300
O667        O  0.41439369  0.88780495  0.23288035    -0.91000
O668        O  0.50770171  0.92914684  0.29532955    -0.76900
O669        O  0.45951695  0.92213551  0.37082338    -0.86400
O670        O  0.44798366  0.87650470  0.30285079    -0.86100
O671        O  0.39124354  0.89227464  0.37590157    -0.72900
O672        O  0.38401184  0.85199978  0.31295357    -0.85000
Zr673      Zr  0.41329328  0.82253528  0.43437396     2.26400
Zr674      Zr  0.42777127  0.90615342  0.43672268     2.06300
Zr675      Zr  0.40913602  0.82203934  0.30829118     2.10000
Zr676      Zr  0.48441414  0.89281675  0.36144827     1.78800
O677        O  0.36124498  0.77979305  0.27585488    -0.93800
O678        O  0.52481283  0.94156030  0.39584115    -0.41600
O679        O  0.44541243  0.83750811  0.36807495    -0.78300
O680        O  0.45425665  0.87751612  0.43080586    -0.97000
O681        O  0.38832182  0.85196697  0.43924825    -0.90300
O682        O  0.37767891  0.80690791  0.37369253    -0.93100
C683        C  0.49805295  0.94156311  0.26592101     1.00700
C684        C  0.41084124  0.86280401  0.21339799     1.13600
C685        C  0.43994917  0.96808523  0.38395007     1.04400
O686        O  0.47884937  0.93693550  0.47073624    -0.95300
O687        O  0.39884126  0.87729497  0.50148074    -0.91000
O688        O  0.41118394  0.83970269  0.51095009    -0.84100
C689        C  0.40136602  0.85747644  0.52579353     1.11000
O690        O  0.31918964  0.85175573  0.34293353    -0.97200
Zr691      Zr  0.35286754  0.83675609  0.37974337     1.88900
O692        O  0.36218261  0.78193705  0.46153175    -0.73900
O693        O  0.42791773  0.93915682  0.49847143    -0.53100
O694        O  0.32727641  0.85213292  0.43530443    -0.97800
O695        O  0.31380274  0.79549392  0.33171068    -0.55000
O696        O  0.32698827  0.79269925  0.43285049    -0.74400
C697        C  0.33439443  0.77628118  0.45781637     0.98000
O698        O  0.44139860  0.80757527  0.48538316    -0.63200
O699        O  0.44339695  0.81180024  0.26273034    -0.58000
O700        O  0.41553736  0.77660269  0.40740028    -0.94700
O701        O  0.40826751  0.77455729  0.33140017    -0.93100
O702        O  0.51032448  0.87175797  0.31663961    -0.93500
O703        O  0.51800674  0.88243397  0.40767936    -0.92300
C704        C  0.41233306  0.76371694  0.36833571     1.16800
H705        H  0.45825612  0.87973378  0.27413159     0.32700
H706        H  0.46774121  0.88194357  0.45632787     0.43600
H707        H  0.36314377  0.78440222  0.37337962     0.37100
H708        H  0.37982014  0.90307351  0.37618738     0.33600
H709        H  0.54415789  0.94562798  0.38106753     0.25400
H710        H  0.44371174  0.96121478  0.49072081     0.31300
H711        H  0.34427610  0.87092449  0.45049445     0.37200
H712        H  0.49723353  0.84852887  0.31992249     0.31700
H713        H  0.43015404  0.79746981  0.23842413     0.30600
H714        H  0.36698004  0.77638380  0.24527866     0.32200
H715        H  0.31457892  0.77632025  0.33873128     0.31200
H716        H  0.50381642  0.86207572  0.42277398     0.35200
H717        H  0.45571642  0.82710082  0.50213425     0.27900
H718        H  0.41112431  0.94423725  0.25082577     0.32200
H719        H  0.29839074  0.83776716  0.35602271     0.35000
H720        H  0.45753998  0.83198816  0.24724238     0.27600
H721        H  0.42588373  0.79365044  0.50806972     0.40500
H722        H  0.48835545  0.95790956  0.45607285     0.30600
H723        H  0.52147288  0.95830899  0.38398537     0.38200
H724        H  0.32229046  0.80137111  0.30073100     0.30000
H725        H  0.40793894  0.93833520  0.49637477     0.30100
H726        H  0.39540025  0.94366774  0.29679480     0.30400
Zr727      Zr  0.42061811  0.90415458  0.81215887     2.17500
O728        O  0.39359667  0.92986540  0.78463537    -0.52000
O729        O  0.46578940  0.93435635  0.76468860    -0.75200
O730        O  0.44544563  0.95591406  0.85250249    -0.82000
O731        O  0.39640814  0.83693609  0.73060348    -0.83700
O732        O  0.41815075  0.93995243  0.91603922    -0.79300
O733        O  0.39991087  0.88449412  0.73777154    -0.91000
O734        O  0.50309551  0.92652891  0.79275695    -0.76900
O735        O  0.45656761  0.91588605  0.87112034    -0.86400
O736        O  0.44423968  0.87352962  0.79691887    -0.86100
O737        O  0.38856575  0.88672322  0.87856305    -0.72900
O738        O  0.38101679  0.84884956  0.81163022    -0.85000
Zr739      Zr  0.41116063  0.81437653  0.92490601     2.26400
Zr740      Zr  0.42543616  0.89742668  0.93759502     2.06300
Zr741      Zr  0.40540477  0.81882049  0.79996689     2.10000
Zr742      Zr  0.48116212  0.88709949  0.85462116     1.78800
O743        O  0.35831371  0.77552869  0.76742241    -0.93800
O744        O  0.52352000  0.93322698  0.89146993    -0.41600
O745        O  0.44254864  0.83167271  0.85779657    -0.78300
O746        O  0.45218137  0.86944394  0.92478110    -0.97000
O747        O  0.38575483  0.84310637  0.93707622    -0.90300
O748        O  0.37463213  0.80132218  0.86612078    -0.93100
C749        C  0.49336475  0.93923713  0.76423184     1.00700
C750        C  0.39456663  0.86002897  0.71500526     1.13600
C751        C  0.43893026  0.96185476  0.89212360     1.04400
O752        O  0.47671422  0.92898740  0.97053674    -0.95300
O753        O  0.39797247  0.86264425  0.99875849    -0.91000
O754        O  0.41913959  0.83270489  0.00251398    -0.84100
C755        C  0.40905886  0.84898847  0.02152302     1.11000
O756        O  0.31692319  0.84473588  0.83658231    -0.97200
Zr757      Zr  0.35025458  0.83126192  0.87804895     1.88900
O758        O  0.36043773  0.77509307  0.95524850    -0.73900
O759        O  0.42264568  0.92480475  0.00457724    -0.53100
O760        O  0.32536840  0.84916304  0.93101002    -0.97800
O761        O  0.30949603  0.78719607  0.83545270    -0.55000
O762        O  0.32645220  0.78983772  0.93405702    -0.74400
C763        C  0.33370739  0.77243952  0.95659696     0.98000
O764        O  0.43454804  0.79022731  0.96842525    -0.63200
O765        O  0.43716160  0.81087482  0.74558881    -0.58000
O766        O  0.41494466  0.77098166  0.89207505    -0.94700
O767        O  0.40584813  0.77108809  0.81709994    -0.93100
O768        O  0.50574227  0.86816964  0.80295178    -0.93500
O769        O  0.51676662  0.87547685  0.89292578    -0.92300
C770        C  0.41107910  0.75933830  0.85210392     1.16800
H771        H  0.45356510  0.87756521  0.76731588     0.32700
H772        H  0.46621400  0.87305458  0.94926346     0.43600
H773        H  0.36003700  0.77885184  0.86488141     0.37100
H774        H  0.37724341  0.89755061  0.88140981     0.33600
H775        H  0.54155439  0.93973820  0.87139431     0.25400
H776        H  0.43677513  0.94765194  0.99891129     0.31300
H777        H  0.30350032  0.83178086  0.93216483     0.37200
H778        H  0.52647158  0.88683504  0.79706111     0.31700
H779        H  0.44410093  0.82823411  0.72343385     0.30600
H780        H  0.36551047  0.76813170  0.74166083     0.32200
H781        H  0.31011496  0.76829482  0.84480438     0.31200
H782        H  0.50388018  0.85298431  0.90177176     0.35200
H783        H  0.45197283  0.80776573  0.98495937     0.27900
H784        H  0.40965652  0.94889958  0.76859543     0.32200
H785        H  0.29583699  0.83090343  0.84883660     0.35000
H786        H  0.45608484  0.81599813  0.76243314     0.27600
H787        H  0.41909945  0.77758454  0.99197576     0.40500
H788        H  0.47526694  0.91888756  0.00000966     0.30600
H789        H  0.51862929  0.95011581  0.88792713     0.38200
H790        H  0.31701258  0.79104422  0.80385370     0.30000
H791        H  0.40166691  0.92176900  0.00400236     0.30100
H792        H  0.38885997  0.93815332  0.81202315     0.30400
C793        C  0.39701534  0.88337352  0.59395624    -0.27000
C794        C  0.39265738  0.85579868  0.57307504    -0.15000
C795        C  0.38123563  0.82784471  0.59800455     0.35600
C796        C  0.37840577  0.82916292  0.64461660    -0.26400
C797        C  0.38759067  0.85808277  0.66659934    -0.15700
C798        C  0.39471955  0.88492311  0.64045986     0.36700
N799        N  0.40115980  0.91437619  0.65967801    -0.89900
H800        H  0.40440781  0.90466063  0.57450374     0.17800
H801        H  0.37095158  0.80782297  0.66400623     0.17800
N802        N  0.37339127  0.79859169  0.57615759    -0.88900
H803        H  0.42111284  0.92372738  0.67928724     0.35100
H804        H  0.38239051  0.91037528  0.67973984     0.40200
H805        H  0.35465503  0.79256765  0.55494468     0.39900
H806        H  0.36582545  0.78032359  0.59973129     0.34800
C807        C  0.42784208  0.84874022  0.14458093    -0.27000
C808        C  0.41122183  0.86139567  0.16431543    -0.15000
C809        C  0.39460006  0.87074614  0.13734050     0.35600
C810        C  0.39406635  0.86617480  0.09069261    -0.26400
C811        C  0.41010707  0.85272110  0.07078653    -0.15700
C812        C  0.42787603  0.84468742  0.09802219     0.36700
N813        N  0.44617811  0.83289876  0.07859477    -0.89900
H814        H  0.44118476  0.84225788  0.16574329     0.17800
H815        H  0.38072500  0.87286640  0.06996213     0.17800
N816        N  0.37783333  0.88405713  0.15739983    -0.88900
H817        H  0.45696964  0.82720676  0.10375228     0.35100
H818        H  0.46390994  0.85127663  0.05987756     0.40200
H819        H  0.36017148  0.86652024  0.17724281     0.39900
H820        H  0.36710702  0.89006177  0.13253864     0.34800
C821        C  0.56555914  0.00163249  0.70050067    -0.27000
C822        C  0.55235169  0.00882779  0.66403090    -0.15000
C823        C  0.52028407  0.98956093  0.65715954     0.35600
C824        C  0.50190638  0.96588886  0.68882299    -0.26400
C825        C  0.51469842  0.96079872  0.72791227    -0.15700
C826        C  0.54724974  0.97801804  0.73243888     0.36700
N827        N  0.56158461  0.97326061  0.77098488    -0.89900
H828        H  0.59025323  0.01612555  0.70595384     0.17800
H829        H  0.47716149  0.95236267  0.68367956     0.17800
N830        N  0.50585985  0.99533960  0.61992058    -0.88900
H831        H  0.58534454  0.98961640  0.77114593     0.35100
H832        H  0.55918541  0.95102044  0.76750335     0.40200
H833        H  0.48924939  0.99992706  0.63279820     0.39900
H834        H  0.49435543  0.97463730  0.60073499     0.34800
C835        C  0.49158294  0.01152842  0.40524973    -0.27000
C836        C  0.45976612  0.99978649  0.40485802    -0.15000
C837        C  0.44762447  0.01258138  0.43618478     0.35600
C838        C  0.46702457  0.03423424  0.46934256    -0.26400
C839        C  0.49830434  0.04327694  0.47293712    -0.15700
C840        C  0.51071064  0.03232413  0.43914029     0.36700
N841        N  0.54244179  0.04074236  0.44003801    -0.89900
H842        H  0.50126799  0.00183742  0.38206322     0.17800
H843        H  0.45702896  0.04279186  0.49382577     0.17800
N844        N  0.41543396  0.00289210  0.43685110    -0.88900
H845        H  0.55249165  0.05081516  0.40892403     0.35100
H846        H  0.54306122  0.01999493  0.44354977     0.40200
H847        H  0.40388942  0.98844971  0.40924137     0.39900
H848        H  0.41406937  0.02316277  0.43258260     0.34800
C849        C  0.62471890  0.17439128  0.89450778    -0.27000
C850        C  0.60693981  0.14440076  0.91477861    -0.15000
C851        C  0.58650613  0.11843708  0.88783294     0.35600
C852        C  0.58332119  0.12315232  0.84234254    -0.26400
C853        C  0.60010493  0.15329172  0.82273006    -0.15700
C854        C  0.62152909  0.17923248  0.84891251     0.36700
N855        N  0.64089807  0.21039171  0.83057255    -0.89900
H856        H  0.64063710  0.19460352  0.91475336     0.17800
H857        H  0.56750322  0.10298337  0.82197554     0.17800
N858        N  0.56810679  0.08726735  0.90580284    -0.88900
H859        H  0.63492759  0.22542844  0.84654941     0.35100
H860        H  0.63711866  0.21123763  0.79619395     0.40200
H861        H  0.55406230  0.08772824  0.93142341     0.39900
H862        H  0.58306925  0.08073174  0.91943086     0.34800
C863        C  0.57567847  0.12309816  0.40001462    -0.27000
C864        C  0.60377976  0.14595184  0.41923794    -0.15000
C865        C  0.62352115  0.17381771  0.39474527     0.35600
C866        C  0.61529437  0.17771115  0.35110493    -0.26400
C867        C  0.58799493  0.15393746  0.33125016    -0.15700
C868        C  0.56775540  0.12673706  0.35633504     0.36700
N869        N  0.53943227  0.10233943  0.33690102    -0.89900
H870        H  0.55945504  0.10246356  0.41917433     0.17800
H871        H  0.63137552  0.19826967  0.33154177     0.17800
N872        N  0.65239653  0.19770753  0.41333497    -0.88900
H873        H  0.52120591  0.09903350  0.35768467     0.35100
H874        H  0.53981406  0.08135067  0.33691963     0.40200
H875        H  0.65244992  0.21891321  0.41424316     0.39900
H876        H  0.67007598  0.20074821  0.39154185     0.34800
C877        C  0.55112502  0.97937392  0.23371271    -0.27000
C878        C  0.51892461  0.96216259  0.22832316    -0.15000
C879        C  0.50661780  0.96671729  0.18778608     0.35600
C880        C  0.52595217  0.99136327  0.15773460    -0.26400
C881        C  0.55763479  0.01109340  0.16609289    -0.15700
C882        C  0.57055467  0.00324026  0.20291491     0.36700
N883        N  0.60330594  0.01949365  0.21067484    -0.89900
H884        H  0.56128723  0.97531890  0.26314638     0.17800
H885        H  0.51574057  0.99665200  0.12954774     0.17800
N886        N  0.47427901  0.94685688  0.17778296    -0.88900
H887        H  0.60805527  0.03337314  0.23964086     0.35100
H888        H  0.61570092  0.03434877  0.18378268     0.40200
H889        H  0.46993752  0.92391523  0.17313939     0.39900
H890        H  0.46885085  0.95346748  0.14729099     0.34800
C891        C  0.46767358  0.03057373  0.97480392    -0.27000
C892        C  0.49768279  0.03671918  0.98365709    -0.15000
C893        C  0.50851038  0.01999580  0.95772271     0.35600
C894        C  0.49011621  0.99911759  0.92342479    -0.26400
C895        C  0.45982747  0.99195029  0.91614875    -0.15700
C896        C  0.44834590  0.00768366  0.94254366     0.36700
N897        N  0.41699965  0.00017999  0.93686774    -0.89900
H898        H  0.45875799  0.04278091  0.99425527     0.17800
H899        H  0.49864603  0.98604362  0.90522779     0.17800
N900        N  0.53730162  0.02219147  0.96785131    -0.88900
H901        H  0.41255541  0.01467582  0.95737745     0.35100
H902        H  0.40236566  0.97713257  0.94842092     0.40200
H903        H  0.55037582  0.02794969  0.93821259     0.39900
H904        H  0.53254456  0.99981413  0.97786715     0.34800
C905        C  0.70615820  0.25193357  0.77058966    -0.27000
C906        C  0.69484378  0.26047365  0.73361961    -0.15000
C907        C  0.70785231  0.29298059  0.72348006     0.35600
C908        C  0.73223431  0.31586192  0.75021721    -0.26400
C909        C  0.74432708  0.30720734  0.78649303    -0.15700
C910        C  0.73015384  0.27471086  0.79759785     0.36700
N911        N  0.73998581  0.26477336  0.83642053    -0.89900
H912        H  0.69611369  0.22708536  0.77844949     0.17800
H913        H  0.74254810  0.34057515  0.74136162     0.17800
N914        N  0.69789509  0.30367860  0.68564143    -0.88900
H915        H  0.72765110  0.24013964  0.83922797     0.35100
H916        H  0.73437776  0.27332420  0.86497040     0.40200
H917        H  0.68025565  0.28485395  0.66770502     0.39900
H918        H  0.71661267  0.31521869  0.66340979     0.34800
C919        C  0.69626542  0.29140869  0.23785814    -0.27000
C920        C  0.69130441  0.26078009  0.24084449    -0.15000
C921        C  0.71057159  0.25525511  0.26873687     0.35600
C922        C  0.73527267  0.28063943  0.29134809    -0.26400
C923        C  0.74150166  0.31186061  0.28712332    -0.15700
C924        C  0.72128174  0.31711046  0.26028928     0.36700
N925        N  0.72620982  0.34833422  0.25522436    -0.89900
H926        H  0.68138860  0.29553095  0.21632177     0.17800
H927        H  0.74994740  0.27578140  0.31212267     0.17800
N928        N  0.70500301  0.22373992  0.27384843    -0.88900
H929        H  0.70819909  0.34764017  0.23692685     0.35100
H930        H  0.74616744  0.36138283  0.23570310     0.40200
H931        H  0.68348747  0.21011154  0.28955139     0.39900
H932        H  0.72131102  0.22360826  0.29534496     0.34800
C933        C  0.85975805  0.38227577  0.61987942    -0.27000
C934        C  0.86634718  0.40995166  0.59757407    -0.15000
C935        C  0.86601353  0.43459038  0.62119224     0.35600
C936        C  0.85890835  0.43102564  0.66716628    -0.26400
C937        C  0.85221445  0.40336399  0.68975180    -0.15700
C938        C  0.85226252  0.37841216  0.66583698     0.36700
N939        N  0.84431102  0.34882857  0.68671094    -0.89900
H940        H  0.85882450  0.36295212  0.60101090     0.17800
H941        H  0.85964053  0.45034076  0.68579725     0.17800
N942        N  0.87235105  0.46288408  0.59792206    -0.88900
H943        H  0.82574166  0.33084435  0.66878460     0.35100
H944        H  0.83593853  0.34722617  0.71944724     0.40200
H945        H  0.89510011  0.47402320  0.58603722     0.39900
H946        H  0.87115284  0.47871425  0.62014861     0.34800
C947        C  0.83534853  0.37567455  0.11943550    -0.27000
C948        C  0.86067358  0.39903488  0.09469266    -0.15000
C949        C  0.87871933  0.42958859  0.11330420     0.35600
C950        C  0.87196795  0.43566854  0.15665774    -0.26400
C951        C  0.84792422  0.41191462  0.18236281    -0.15700
C952        C  0.82903854  0.38151983  0.16338287     0.36700
N953        N  0.80412877  0.35585460  0.18789921    -0.89900
H954        H  0.82063877  0.35248252  0.10477771     0.17800
H955        H  0.88680053  0.45872227  0.17170001     0.17800
N956        N  0.90356080  0.45456854  0.08795853    -0.88900
H957        H  0.81008550  0.33871888  0.19319441     0.35100
H958        H  0.80093978  0.36290144  0.21963853     0.40200
H959        H  0.92115536  0.44939444  0.08636634     0.39900
H960        H  0.91284396  0.47611020  0.10508435     0.34800
C961        C  0.28560916  0.69880214  0.52473609    -0.27000
C962        C  0.25831421  0.69918468  0.53265552    -0.15000
C963        C  0.25634475  0.72477567  0.51546316     0.35600
C964        C  0.28129084  0.74921435  0.49154906    -0.26400
C965        C  0.30889462  0.74930586  0.48404498    -0.15700
C966        C  0.31081679  0.72344869  0.50124309     0.36700
N967        N  0.33768586  0.72104607  0.49497363    -0.89900
H968        H  0.28764654  0.67941720  0.53758641     0.17800
H969        H  0.27890498  0.76844047  0.47895334     0.17800
N970        N  0.22869927  0.72583790  0.52129434    -0.88900
H971        H  0.35633708  0.73989128  0.51152868     0.35100
H972        H  0.34246797  0.72210394  0.46044400     0.40200
H973        H  0.22037658  0.72661849  0.48936034     0.39900
H974        H  0.23443536  0.74675078  0.53828702     0.34800
C975        C  0.03400021  0.49977224  0.81505247    -0.27000
C976        C  0.03972337  0.48575498  0.77753394    -0.15000
C977        C  0.02381837  0.45245079  0.77549320     0.35600
C978        C  0.00109740  0.43426823  0.80827529    -0.26400
C979        C  0.99372157  0.44843497  0.84382708    -0.15700
C980        C  0.01140775  0.48166016  0.84800462     0.36700
N981        N  0.00481392  0.49716950  0.88362048    -0.89900
H982        H  0.04663291  0.52528845  0.81809892     0.17800
H983        H  0.98772959  0.40881628  0.80423318     0.17800
N984        N  0.02932923  0.43688464  0.73899398    -0.88900
H985        H  0.01882576  0.52172209  0.88076357     0.35100
H986        H  0.01071151  0.49102617  0.91410166     0.40200
H987        H  0.00848468  0.42292149  0.72193378     0.39900
H988        H  0.03610507  0.42188911  0.75271109     0.34800
C989        C  0.99285374  0.52194687  0.59931932    -0.27000
C990        C  0.01229272  0.55459912  0.59361034    -0.15000
C991        C  0.00513226  0.56955890  0.55852855     0.35600
C992        C  0.98165278  0.55108547  0.52708382    -0.26400
C993        C  0.96449621  0.51798577  0.53001294    -0.15700
C994        C  0.96925010  0.50364472  0.56820503     0.36700
N995        N  0.95069960  0.47018097  0.57508699    -0.89900
H996        H  0.99761794  0.51000507  0.62589311     0.17800
H997        H  0.97774347  0.56271854  0.49914574     0.17800
N998        N  0.02195377  0.60332258  0.55279526    -0.88900
H999        H  0.94001031  0.46616796  0.60667888     0.35100
H1000       H  0.96532992  0.46102765  0.57571837     0.40200
H1001       H  0.03663599  0.61454719  0.58008297     0.39900
H1002       H  0.00590057  0.61069701  0.55391731     0.34800
C1003       C  0.26246578  0.72877895  0.03118460    -0.27000
C1004       C  0.25958569  0.69907328  0.03659302    -0.15000
C1005       C  0.28314080  0.69452116  0.01867279     0.35600
C1006       C  0.30750153  0.71888628  0.99329378    -0.26400
C1007       C  0.30927109  0.74792385  0.98623084    -0.15700
C1008       C  0.28705325  0.75321118  0.00694907     0.36700
N1009       N  0.28959657  0.78354584  0.00359055    -0.89900
H1010       H  0.24521089  0.73307741  0.04561007     0.17800
H1011       H  0.32491545  0.71500436  0.97838820     0.17800
N1012       N  0.28246982  0.66542006  0.02634690    -0.88900
H1013       H  0.30979800  0.79997166  0.02033134     0.35100
H1014       H  0.27129795  0.78348972  0.02034901     0.40200
H1015       H  0.28539309  0.66384115  0.06097406     0.39900
H1016       H  0.30115095  0.66577990  0.01034069     0.34800
C1017       C  0.03993032  0.51091073  0.32753363    -0.27000
C1018       C  0.04377278  0.49538601  0.29026136    -0.15000
C1019       C  0.02764865  0.46198001  0.29046802     0.35600
C1020       C  0.00563499  0.44529753  0.32478865    -0.26400
C1021       C  0.99872815  0.46115582  0.35820134    -0.15700
C1022       C  0.01798327  0.49433649  0.36148933     0.36700
N1023       N  0.01360631  0.51229771  0.39591300    -0.89900
H1024       H  0.05302036  0.53649546  0.32929923     0.17800
H1025       H  0.99082383  0.41986998  0.32186374     0.17800
N1026       N  0.03179337  0.44502133  0.25431370    -0.88900
H1027       H  0.03437807  0.52492940  0.41363850     0.35100
H1028       H  0.99716628  0.49747452  0.41959196     0.40200
H1029       H  0.02294950  0.44912673  0.22496986     0.39900
H1030       H  0.01877617  0.42067248  0.26019704     0.34800
C1031       C  0.13809939  0.62054019  0.87270549    -0.27000
C1032       C  0.13256813  0.59366574  0.84893850    -0.15000
C1033       C  0.13364358  0.56902886  0.87116380     0.35600
C1034       C  0.14136227  0.57219127  0.91690630    -0.26400
C1035       C  0.14729181  0.59919380  0.94080057    -0.15700
C1036       C  0.14537110  0.62354545  0.91877293     0.36700
N1037       N  0.15134324  0.65138180  0.94312536    -0.89900
H1038       H  0.13817782  0.63972885  0.85487045     0.17800
H1039       H  0.14191016  0.55317721  0.93426004     0.17800
N1040       N  0.12758243  0.54123696  0.84659881    -0.88900
H1041       H  0.14894326  0.66691455  0.92198604     0.35100
H1042       H  0.17442536  0.66312234  0.95344284     0.40200
H1043       H  0.10459276  0.52978557  0.83590090     0.39900
H1044       H  0.12958753  0.52544287  0.86770621     0.34800
C1045       C  0.16761358  0.63038039  0.41988208    -0.27000
C1046       C  0.15475320  0.60045678  0.43982892    -0.15000
C1047       C  0.13317959  0.57325296  0.41559957     0.35600
C1048       C  0.12549573  0.57673485  0.37167989    -0.26400
C1049       C  0.13934593  0.60647394  0.35110647    -0.15700
C1050       C  0.16042367  0.63373542  0.37553029     0.36700
N1051       N  0.17511041  0.66490646  0.35623250    -0.89900
H1052       H  0.18303483  0.65134883  0.43923356     0.17800
H1053       H  0.11007471  0.55573191  0.35238391     0.17800
N1054       N  0.11832845  0.54192427  0.43443292    -0.88900
H1055       H  0.16854731  0.67825159  0.37558817     0.35100
H1056       H  0.16708278  0.66441222  0.32363613     0.40200
H1057       H  0.12620728  0.54185396  0.46688771     0.39900
H1058       H  0.12451241  0.52851140  0.41449973     0.34800
C1059       C  0.00336646  0.51614594  0.09744935    -0.27000
C1060       C  0.01152900  0.54781967  0.10069167    -0.15000
C1061       C  0.99721462  0.55895318  0.07095198     0.35600
C1062       C  0.97660142  0.53867560  0.03766177    -0.26400
C1063       C  0.96995426  0.50741588  0.03232233    -0.15700
C1064       C  0.98373819  0.49616227  0.06312800     0.36700
N1065       N  0.97890931  0.46488729  0.05882998    -0.89900
H1066       H  0.01480443  0.50772426  0.11919673     0.17800
H1067       H  0.96618086  0.54784868  0.01520934     0.17800
N1068       N  0.00353295  0.59086031  0.07291444    -0.88900
H1069       H  0.98924334  0.45987809  0.08547012     0.35100
H1070       H  0.99034697  0.46456533  0.02950239     0.40200
H1071       H  0.01772948  0.60301840  0.10026912     0.39900
H1072       H  0.98257840  0.58972409  0.07918794     0.34800
C1073       C  0.39899775  0.68272410  0.80355308    -0.27000
C1074       C  0.42582270  0.68333123  0.81767144    -0.15000
C1075       C  0.44596738  0.70717879  0.84844852     0.35600
C1076       C  0.43960818  0.73072324  0.86164855    -0.26400
C1077       C  0.41390063  0.73120666  0.84468847    -0.15700
C1078       C  0.39310014  0.70649606  0.81626047     0.36700
N1079       N  0.36616563  0.70578040  0.79946732    -0.89900
H1080       H  0.38320264  0.66450877  0.78043899     0.17800
H1081       H  0.45566248  0.74957434  0.88372726     0.17800
N1082       N  0.47296549  0.70848737  0.86672223    -0.88900
H1083       H  0.34675529  0.68441609  0.80938005     0.35100
H1084       H  0.36718989  0.70609062  0.76419874     0.40200
H1085       H  0.47435931  0.68896331  0.85684834     0.39900
H1086       H  0.47046310  0.70686297  0.90183719     0.34800
C1087       C  0.28339648  0.58568069  0.63716589    -0.27000
C1088       C  0.27241588  0.59710292  0.67148238    -0.15000
C1089       C  0.28925124  0.60687906  0.71281327     0.35600
C1090       C  0.31587078  0.60489840  0.71832303    -0.26400
C1091       C  0.32683713  0.59365548  0.68373578    -0.15700
C1092       C  0.31005718  0.58394033  0.64260804     0.36700
N1093       N  0.31884559  0.57129226  0.60585595    -0.89900
H1094       H  0.27097121  0.57760903  0.60556250     0.17800
H1095       H  0.32834425  0.61266419  0.74993916     0.17800
N1096       N  0.28053690  0.61951894  0.74972240    -0.88900
H1097       H  0.32086858  0.55250221  0.61770415     0.35100
H1098       H  0.34002825  0.58901530  0.59293129     0.40200
H1099       H  0.25910996  0.60203011  0.76231970     0.39900
H1100       H  0.27919279  0.63878513  0.73823772     0.34800
C1101       C  0.44451791  0.73923722  0.36392788    -0.27000
C1102       C  0.41498648  0.73532833  0.36377535    -0.15000
C1103       C  0.38957699  0.70618705  0.34972811     0.35600
C1104       C  0.39449357  0.68216547  0.33370038    -0.26400
C1105       C  0.42447436  0.68707563  0.32991551    -0.15700
C1106       C  0.44951627  0.71557625  0.34692948     0.36700
N1107       N  0.48023832  0.72096530  0.34613645    -0.89900
H1108       H  0.46417888  0.76162878  0.37446640     0.17800
H1109       H  0.37498943  0.66020257  0.32186901     0.17800
N1110       N  0.35908398  0.70167862  0.34996575    -0.88900
H1111       H  0.48861864  0.72531185  0.37919385     0.35100
H1112       H  0.49412456  0.74128974  0.32703720     0.40200
H1113       H  0.35316086  0.70255127  0.38356919     0.39900
H1114       H  0.34294660  0.67917942  0.33788551     0.34800
C1115       C  0.28294017  0.60666186  0.20881991    -0.27000
C1116       C  0.26714896  0.59454916  0.16765762    -0.15000
C1117       C  0.27910009  0.58155159  0.13665133     0.35600
C1118       C  0.30602773  0.58129600  0.14722756    -0.26400
C1119       C  0.32162413  0.59333309  0.18839390    -0.15700
C1120       C  0.30974977  0.60627110  0.21938760     0.36700
N1121       N  0.32506325  0.62054862  0.26091126    -0.89900
H1122       H  0.27466679  0.61705835  0.23317362     0.17800
H1123       H  0.31470871  0.57124202  0.12294250     0.17800
N1124       N  0.26420671  0.56766200  0.09473289    -0.88900
H1125       H  0.34777348  0.63820802  0.25345949     0.35100
H1126       H  0.32527569  0.60337953  0.28118560     0.40200
H1127       H  0.26423514  0.58504841  0.07466612     0.39900
H1128       H  0.24144059  0.54976831  0.10136129     0.34800
C1129       C  0.44580677  0.61539315  0.93375845    -0.27000
C1130       C  0.43960321  0.58647992  0.91549728    -0.15000
C1131       C  0.44345937  0.56514430  0.94259377     0.35600
C1132       C  0.45403929  0.57360647  0.98677835    -0.26400
C1133       C  0.45997474  0.60227599  0.00536621    -0.15700
C1134       C  0.45601155  0.62363184  0.97841153     0.36700
N1135       N  0.46217081  0.65372507  0.99515971    -0.89900
H1136       H  0.44395006  0.63225187  0.91263377     0.17800
H1137       H  0.45535291  0.55648015  0.00790145     0.17800
N1138       N  0.43652243  0.53457729  0.92661662    -0.88900
H1139       H  0.47940446  0.67123401  0.97474676     0.35100
H1140       H  0.47142615  0.65804586  0.02763643     0.40200
H1141       H  0.42601877  0.52942044  0.89497519     0.39900
H1142       H  0.41996757  0.51757347  0.94835539     0.34800
C1143       C  0.44593627  0.56957900  0.49179368    -0.27000
C1144       C  0.45716095  0.59972756  0.51034063    -0.15000
C1145       C  0.45534371  0.62285947  0.48499082     0.35600
C1146       C  0.44312035  0.61571281  0.44112909    -0.26400
C1147       C  0.43320390  0.58597723  0.42206636    -0.15700
C1148       C  0.43441587  0.56270799  0.44779767     0.36700
N1149       N  0.42503075  0.53241558  0.42852771    -0.89900
H1150       H  0.44625656  0.55124412  0.51141015     0.17800
H1151       H  0.44352569  0.63415477  0.42078874     0.17800
N1152       N  0.46743749  0.65407895  0.50266265    -0.88900
H1153       H  0.40756516  0.51510571  0.44887184     0.35100
H1154       H  0.44390361  0.52912749  0.42948865     0.40200
H1155       H  0.44976906  0.65921470  0.50225341     0.39900
H1156       H  0.48494790  0.66995018  0.48095481     0.34800
C1157       C  0.61518475  0.32634723  0.06263207    -0.27000
C1158       C  0.58652011  0.32423110  0.06863019    -0.15000
C1159       C  0.56246407  0.29762377  0.09122729     0.35600
C1160       C  0.56716517  0.27324802  0.10549321    -0.26400
C1161       C  0.59505915  0.27448792  0.09679345    -0.15700
C1162       C  0.61952370  0.30147465  0.07571002     0.36700
N1163       N  0.64861894  0.30351589  0.06761455    -0.89900
H1164       H  0.63371454  0.34666364  0.04537107     0.17800
H1165       H  0.54840297  0.25238672  0.12144235     0.17800
N1166       N  0.53307226  0.29502645  0.09861917    -0.88900
H1167       H  0.66473560  0.32568868  0.05449139     0.35100
H1168       H  0.64519516  0.28706691  0.04259429     0.40200
H1169       H  0.53657981  0.31323576  0.12041289     0.39900
H1170       H  0.51780924  0.27385741  0.11506343     0.34800
C1171       C  0.73559012  0.42099299  0.96400319    -0.27000
C1172       C  0.74013638  0.41073067  0.92191611    -0.15000
C1173       C  0.71806883  0.40330162  0.88766950     0.35600
C1174       C  0.69237140  0.40645789  0.89589706    -0.26400
C1175       C  0.68782432  0.41691899  0.93791171    -0.15700
C1176       C  0.70999641  0.42436190  0.97220891     0.36700
N1177       N  0.70707353  0.43581565  0.01531113    -0.89900
H1178       H  0.75233942  0.42707118  0.99072457     0.17800
H1179       H  0.67571587  0.40029648  0.86903320     0.17800
N1180       N  0.72120578  0.39190325  0.84464475    -0.88900
H1181       H  0.72680348  0.45800620  0.02064323     0.35100
H1182       H  0.70638945  0.42044135  0.04012824     0.40200
H1183       H  0.70154696  0.36968239  0.83918725     0.39900
H1184       H  0.72191136  0.40726630  0.81979284     0.34800
C1185       C  0.53465660  0.50185591  0.78659597    -0.27000
C1186       C  0.55795348  0.51854752  0.81919342    -0.15000
C1187       C  0.57607157  0.55184528  0.81522188     0.35600
C1188       C  0.56867965  0.56739169  0.78180301    -0.26400
C1189       C  0.54393403  0.55059399  0.75150475    -0.15700
C1190       C  0.52778063  0.51734340  0.75275258     0.36700
N1191       N  0.50239654  0.49941747  0.72245854    -0.89900
H1192       H  0.52058366  0.47637199  0.78856517     0.17800
H1193       H  0.58090145  0.59299158  0.78148149     0.17800
N1194       N  0.60080197  0.56999644  0.84634291    -0.88900
H1195       H  0.49193173  0.47521400  0.72891503     0.35100
H1196       H  0.51149567  0.50301661  0.68978307     0.40200
H1197       H  0.59094824  0.56785957  0.87822030     0.39900
H1198       H  0.61226262  0.59400397  0.83806113     0.34800
C1199       C  0.44735760  0.44501975  0.04194167    -0.27000
C1200       C  0.47013621  0.46066419  0.00834651    -0.15000
C1201       C  0.48261287  0.49338508  0.00237480     0.35600
C1202       C  0.47435306  0.51002316  0.03259900    -0.26400
C1203       C  0.45366835  0.49490380  0.06889346    -0.15700
C1204       C  0.43883599  0.46158663  0.07199026     0.36700
N1205       N  0.41701529  0.44484872  0.10759496    -0.89900
H1206       H  0.43770539  0.41988840  0.04679857     0.17800
H1207       H  0.48572665  0.53543259  0.02927320     0.17800
N1208       N  0.50544552  0.51015548  0.96792580    -0.88900
H1209       H  0.40995980  0.42087391  0.10701170     0.35100
H1210       H  0.39726699  0.44596099  0.10099935     0.40200
H1211       H  0.52534268  0.50987984  0.97669339     0.39900
H1212       H  0.51172234  0.53391347  0.96717932     0.34800
C1213       C  0.55186107  0.28818703  0.58386413    -0.27000
C1214       C  0.57429621  0.31334442  0.55772496    -0.15000
C1215       C  0.60232374  0.31468045  0.54775230     0.35600
C1216       C  0.60717087  0.29077508  0.56370888    -0.26400
C1217       C  0.58460585  0.26526720  0.58913971    -0.15700
C1218       C  0.55654575  0.26408940  0.59966696     0.36700
N1219       N  0.53154262  0.23810729  0.62355714    -0.89900
H1220       H  0.53012905  0.28680725  0.59109824     0.17800
H1221       H  0.62838117  0.29145689  0.55493199     0.17800
N1222       N  0.62520017  0.33952356  0.51965065    -0.88900
H1223       H  0.52876987  0.24679864  0.65432003     0.35100
H1224       H  0.53619141  0.22034667  0.63101440     0.40200
H1225       H  0.61561993  0.33695502  0.48756411     0.39900
H1226       H  0.64450002  0.33715675  0.51555863     0.34800
C1227       C  0.72549748  0.41867256  0.45951189    -0.27000
C1228       C  0.73188336  0.41137060  0.41631517    -0.15000
C1229       C  0.70926573  0.40216695  0.38230262     0.35600
C1230       C  0.68138561  0.40098975  0.39216836    -0.26400
C1231       C  0.67522353  0.40902102  0.43511395    -0.15700
C1232       C  0.69758204  0.41742687  0.46944409     0.36700
N1233       N  0.69231413  0.42509932  0.51416312    -0.89900
H1234       H  0.74251781  0.42555121  0.48601246     0.17800
H1235       H  0.66446399  0.39402563  0.36553418     0.17800
N1236       N  0.71414763  0.39331928  0.33812532    -0.88900
H1237       H  0.71183381  0.43269454  0.53437570     0.35100
H1238       H  0.67479373  0.40423171  0.52882329     0.40200
H1239       H  0.73067924  0.41396158  0.32177877     0.39900
H1240       H  0.69409102  0.38419080  0.31868679     0.34800
C1241       C  0.56170376  0.39456190  0.68683162    -0.27000
C1242       C  0.56044792  0.41878808  0.66450669    -0.15000
C1243       C  0.55208982  0.43799490  0.68880712     0.35600
C1244       C  0.54564869  0.43296804  0.73498572    -0.26400
C1245       C  0.54737539  0.40910988  0.75756558    -0.15700
C1246       C  0.55507679  0.38946092  0.73306127     0.36700
N1247       N  0.55615581  0.36425969  0.75515169    -0.89900
H1248       H  0.56688135  0.37892454  0.66812282     0.17800
H1249       H  0.54086639  0.44883387  0.75362740     0.17800
N1250       N  0.55057065  0.46298141  0.66674163    -0.88900
H1251       H  0.57833842  0.36791807  0.75082249     0.35100
H1252       H  0.54051678  0.34309244  0.73905473     0.40200
H1253       H  0.56584888  0.48423383  0.68296138     0.39900
H1254       H  0.52820144  0.45885874  0.67087630     0.34800
C1255       C  0.55610922  0.38470588  0.23401949    -0.27000
C1256       C  0.55237969  0.40710372  0.25801111    -0.15000
C1257       C  0.56490119  0.43781686  0.24006275     0.35600
C1258       C  0.57822729  0.44451812  0.19708526    -0.26400
C1259       C  0.57910461  0.42123935  0.17134440    -0.15700
C1260       C  0.56918731  0.39129972  0.19068416     0.36700
N1261       N  0.57023551  0.36653351  0.16668009    -0.89900
H1262       H  0.54784243  0.36151255  0.24839309     0.17800
H1263       H  0.58579940  0.46740729  0.18206533     0.17800
N1264       N  0.56368899  0.46205847  0.26508630    -0.88900
H1265       H  0.58429245  0.36073839  0.18501287     0.35100
H1266       H  0.58073160  0.37419116  0.13520608     0.40200
H1267       H  0.54077737  0.45644589  0.26386270     0.39900
H1268       H  0.57667456  0.48397119  0.24910017     0.34800
C1269       C  0.55829891  0.56359223  0.28646188    -0.27000
C1270       C  0.53470830  0.54934944  0.25400047    -0.15000
C1271       C  0.51715736  0.51608645  0.25174814     0.35600
C1272       C  0.52194405  0.49808797  0.28402113    -0.26400
C1273       C  0.54457543  0.51222915  0.31819556    -0.15700
C1274       C  0.56366242  0.54568920  0.31792480     0.36700
N1275       N  0.58768263  0.56251530  0.35031799    -0.89900
H1276       H  0.57165570  0.58914541  0.28906788     0.17800
H1277       H  0.50688509  0.47265920  0.28321340     0.17800
N1278       N  0.49315040  0.50057782  0.21861665    -0.88900
H1279       H  0.60403546  0.55568602  0.34674413     0.35100
H1280       H  0.57808403  0.55689382  0.38272324     0.40200
H1281       H  0.47578343  0.50535168  0.22651218     0.39900
H1282       H  0.48296472  0.47604447  0.22064483     0.34800
C1283       C  0.47801106  0.48515998  0.49236212    -0.27000
C1284       C  0.45892798  0.45217564  0.49379703    -0.15000
C1285       C  0.43395290  0.43877594  0.52501477     0.35600
C1286       C  0.43102823  0.45821627  0.55709504    -0.26400
C1287       C  0.45237605  0.49091631  0.55909871    -0.15700
C1288       C  0.47514095  0.50453767  0.52456491     0.36700
N1289       N  0.49622922  0.53799472  0.52271551    -0.89900
H1290       H  0.49725032  0.49587122  0.46884076     0.17800
H1291       H  0.41269510  0.44727169  0.58199111     0.17800
N1292       N  0.41204289  0.40534094  0.52650766    -0.88900
H1293       H  0.49410271  0.54606557  0.49111990     0.35100
H1294       H  0.51870211  0.54221741  0.52538356     0.40200
H1295       H  0.41550762  0.39375767  0.49963841     0.39900
H1296       H  0.39010092  0.40209811  0.52145993     0.34800
loop_ 
_geom_bond_atom_site_label_1 
_geom_bond_atom_site_label_2 
_geom_bond_distance 
_geom_bond_site_symmetry_2 
_ccdc_geom_bond_type 
Zr1           O2   2.437       .  S
Zr1           O3   2.434       .  S
Zr1           O4   2.463       .  S
Zr1           O7   2.447       .  S
Zr1           O9   2.379       .  S
Zr1          O10   2.387       .  S
Zr1          O11   2.413       .  S
Zr1          O12   2.414       .  S
O2           H58   0.990       .  S
O2           H66   0.990       .  S
O3           C23   1.285       .  A
O4           C25   1.291       .  A
O5          Zr15   2.428       .  S
O5           C24   1.284       .  A
O6          Zr14   2.366       .  S
O6           C25   1.272       .  A
O7           C24   1.288       .  A
O8          Zr16   2.450       .  S
O8           C23   1.287       .  A
O9          Zr14   2.384       .  S
O9          Zr16   2.364       .  S
O10         Zr15   2.377       .  S
O10         Zr16   2.373       .  S
O10          H45   0.966       .  S
O11         Zr14   2.394       .  S
O11         Zr31   2.418       .  S
O11          H48   0.966       .  S
O12         Zr15   2.389       .  S
O12         Zr31   2.413       .  S
Zr13         O38   2.434       .  S
Zr13         O32   2.422       .  S
Zr13         O40   2.432       .  S
Zr13         O28   2.489       .  S
Zr13         O19   2.431       .  S
Zr13         O20   2.416       .  S
Zr13         O21   2.371       .  S
Zr13         O22   2.405       .  S
Zr14         O33   2.436       .  S
Zr14         O26   2.434       .  S
Zr14         O27   2.394       .  S
Zr14         O20   2.391       .  S
Zr14         O21   2.377       .  S
Zr15         O17   2.437       .  S
Zr15         O39   2.440       .  S
Zr15         O41   2.401       .  S
Zr15         O19   2.399       .  S
Zr15         O22   2.385       .  S
Zr16         O42   2.436       .  S
Zr16         O43   2.434       .  S
Zr16         O18   2.437       .  S
Zr16         O19   2.398       .  S
Zr16         O20   2.410       .  S
O17          H54   0.990       .  S
O18          H49   0.990       .  S
O18          H63   0.990       .  S
O20          H46   0.966       .  S
O21         Zr31   2.368       .  S
O22         Zr31   2.357       .  S
O22          H47   0.964       .  S
C23        C1214   1.486       .  S
C24        C1231   1.501       .  S
C25        C1242   1.467       .  S
O26          H62   0.990       .  S
O27          C29   1.269       .  A
O28          C29   1.291       .  A
C29        C1284   1.488       .  S
O30         Zr31   2.435       .  S
O30          H59   0.990       .  S
Zr31         O34   2.436       .  S
Zr31         O35   2.437       .  S
Zr31         O36   2.480       .  S
O32          C37   1.285       .  A
O33          H50   0.990       .  S
O33          H65   0.990       .  S
O34          H51   0.990       .  S
O35          H55   0.990       .  S
O35          H64   0.990       .  S
O36          C37   1.293       .  A
C37        C1273   1.510       .  S
O38          H57   0.990       .  S
O38          H61   0.990       .  S
O39          H53   0.990       .  S
O39          H60   0.990       .  S
O40          C44   1.281       .  A
O41          C44   1.271       .  A
O42          H52   0.990       .  S
O43          H56   0.990       .  S
C44        C1256   1.476       .  S
Zr67         O68   2.437       .  S
Zr67         O69   2.444       .  S
Zr67         O70   2.428       .  S
Zr67         O73   2.428   1_554  S
Zr67         O75   2.379       .  S
Zr67         O76   2.376   1_554  S
Zr67         O77   2.422       .  S
Zr67         O78   2.410   1_554  S
O68         H124   0.990       .  S
O68         H132   0.990       .  S
O69          C89   1.288       .  A
O70          C91   1.282       .  A
O71         Zr81   2.432       .  S
O71          C90   1.285       .  A
O72         Zr80   2.409       .  S
O72          C91   1.280       .  A
O73          C90   1.284       .  A
O74         Zr82   2.437   1_554  S
O74          C89   1.286       .  A
O75         Zr80   2.376       .  S
O75         Zr82   2.364   1_554  S
O76         Zr81   2.352       .  S
O76         Zr82   2.372       .  S
O76         H111   0.966       .  S
O77         Zr80   2.386       .  S
O77         Zr97   2.429   1_554  S
O77         H114   0.966       .  S
O78         Zr81   2.381       .  S
O78         Zr97   2.418       .  S
Zr79        O104   2.434       .  S
Zr79         O98   2.415       .  S
Zr79        O106   2.465       .  S
Zr79         O94   2.503       .  S
Zr79         O85   2.422       .  S
Zr79         O86   2.408       .  S
Zr79         O87   2.377       .  S
Zr79         O88   2.391       .  S
Zr80         O99   2.434       .  S
Zr80         O92   2.438       .  S
Zr80         O93   2.401       .  S
Zr80         O86   2.403   1_554  S
Zr80         O87   2.386   1_554  S
Zr81         O83   2.436       .  S
Zr81        O105   2.435       .  S
Zr81        O107   2.381       .  S
Zr81         O85   2.398       .  S
Zr81         O88   2.386       .  S
Zr82        O108   2.435       .  S
Zr82        O109   2.435       .  S
Zr82         O84   2.436   1_556  S
Zr82         O85   2.398       .  S
Zr82         O86   2.396       .  S
O83         H120   0.990       .  S
O84         H115   0.990       .  S
O84         H129   0.990       .  S
O86         H112   0.966       .  S
O87         Zr97   2.371       .  S
O88         Zr97   2.355       .  S
O88         H113   0.965       .  S
C89        C1158   1.488       .  S
C90        C1175   1.496       .  S
C91        C1259   1.462       .  S
O92         H128   0.991       .  S
O93          C95   1.272   1_554  A
O94          C95   1.295       .  A
C95        C1200   1.496   1_556  S
O96         Zr97   2.439       .  S
O96         H125   0.990       .  S
Zr97        O100   2.438       .  S
Zr97        O101   2.437       .  S
Zr97        O102   2.501       .  S
O98         C103   1.283       .  A
O99         H116   0.990       .  S
O99         H131   0.990       .  S
O100        H117   0.990       .  S
O101        H121   0.990       .  S
O101        H130   0.990       .  S
O102        C103   1.297       .  A
C103       C1186   1.512       .  S
O104        H123   0.990       .  S
O104        H127   0.990       .  S
O105        H119   0.990       .  S
O105        H126   0.990       .  S
O106        C110   1.294       .  A
O107        C110   1.276       .  A
O108        H118   0.990       .  S
O109        H122   0.990       .  S
C110       C1245   1.470       .  S
Zr133       O134   2.436       .  S
Zr133       O135   2.441       .  S
Zr133       O136   2.454       .  S
Zr133       O139   2.451       .  S
Zr133       O141   2.379       .  S
Zr133       O142   2.381       .  S
Zr133       O143   2.422       .  S
Zr133       O144   2.414       .  S
O134        H190   0.990       .  S
O134        H198   0.990       .  S
O135        C155   1.287       .  A
O136        C157   1.287       .  A
O137       Zr147   2.416       .  S
O137        C156   1.282       .  A
O138       Zr146   2.387       .  S
O138        C157   1.275       .  A
O139        C156   1.289       .  A
O140       Zr148   2.446       .  S
O140        C155   1.287       .  A
O141       Zr146   2.380       .  S
O141       Zr148   2.365       .  S
O142       Zr147   2.369       .  S
O142       Zr148   2.370       .  S
O142        H177   0.966       .  S
O143       Zr146   2.391       .  S
O143       Zr163   2.424       .  S
O143        H180   0.966       .  S
O144       Zr147   2.388       .  S
O144       Zr163   2.417       .  S
Zr145       O170   2.435       .  S
Zr145       O164   2.428       .  S
Zr145       O172   2.455       .  S
Zr145       O160   2.493       .  S
Zr145       O151   2.423       .  S
Zr145       O152   2.418       .  S
Zr145       O153   2.379       .  S
Zr145       O154   2.385       .  S
Zr146       O165   2.435       .  S
Zr146       O158   2.437       .  S
Zr146       O159   2.395       .  S
Zr146       O152   2.408       .  S
Zr146       O153   2.381       .  S
Zr147       O149   2.436       .  S
Zr147       O171   2.437       .  S
Zr147       O173   2.392       .  S
Zr147       O151   2.392       .  S
Zr147       O154   2.379       .  S
Zr148       O174   2.435       .  S
Zr148       O175   2.436       .  S
Zr148       O150   2.437       .  S
Zr148       O151   2.405       .  S
Zr148       O152   2.398       .  S
O149        H186   0.990       .  S
O150        H181   0.990       .  S
O150        H195   0.990       .  S
O152        H178   0.966       .  S
O153       Zr163   2.363       .  S
O154       Zr163   2.358       .  S
O154        H179   0.965       .  S
C155       C1105   1.496       .  S
C156       C1119   1.489       .  S
C157       C1147   1.464       .  S
O158        H194   0.991       .  S
O159        C161   1.267       .  A
O160        C161   1.291       .  A
C161       C1270   1.488       .  S
O162       Zr163   2.438       .  S
O162        H191   0.990       .  S
Zr163       O166   2.438       .  S
Zr163       O167   2.438       .  S
Zr163       O168   2.483       .  S
O164        C169   1.286       .  A
O165        H182   0.990       .  S
O165        H197   0.990       .  S
O166        H183   0.990       .  S
O167        H187   0.990       .  S
O167        H196   0.990       .  S
O168        C169   1.293       .  A
C169       C1203   1.508       .  S
O170        H189   0.990       .  S
O170        H193   0.990       .  S
O171        H185   0.990       .  S
O171        H192   0.990       .  S
O172        C176   1.291       .  A
O173        C176   1.278       .  A
O174        H184   0.990       .  S
O175        H188   0.990       .  S
C176       C1133   1.466       .  S
Zr199       O200   2.436       .  S
Zr199       O201   2.426       .  S
Zr199       O202   2.459       .  S
Zr199       O205   2.454       .  S
Zr199       O207   2.374       .  S
Zr199       O208   2.384       .  S
Zr199       O209   2.418       .  S
Zr199       O210   2.414       .  S
O200        H256   0.990       .  S
O200        H264   0.990       .  S
O201        C221   1.284       .  A
O202        C223   1.289       .  A
O203       Zr213   2.437       .  S
O203        C222   1.285       .  A
O204       Zr212   2.381       .  S
O204        C223   1.274       .  A
O205        C222   1.290       .  A
O206       Zr214   2.456       .  S
O206        C221   1.288       .  A
O207       Zr212   2.382       .  S
O207       Zr214   2.358       .  S
O208       Zr213   2.374       .  S
O208       Zr214   2.371       .  S
O208        H243   0.966       .  S
O209       Zr212   2.392       .  S
O209       Zr229   2.424       .  S
O209        H246   0.966       .  S
O210       Zr213   2.389       .  S
O210       Zr229   2.416       .  S
Zr211       O236   2.435       .  S
Zr211       O230   2.428       .  S
Zr211       O238   2.430       .  S
Zr211       O226   2.504       .  S
Zr211       O217   2.437       .  S
Zr211       O218   2.410       .  S
Zr211       O219   2.372       .  S
Zr211       O220   2.406       .  S
Zr212       O231   2.433       .  S
Zr212       O224   2.437       .  S
Zr212       O225   2.394       .  S
Zr212       O218   2.405       .  S
Zr212       O219   2.378       .  S
Zr213       O215   2.437       .  S
Zr213       O237   2.437       .  S
Zr213       O239   2.413       .  S
Zr213       O217   2.403       .  S
Zr213       O220   2.380       .  S
Zr214       O240   2.437       .  S
Zr214       O241   2.434       .  S
Zr214       O216   2.439       .  S
Zr214       O217   2.399       .  S
Zr214       O218   2.406       .  S
O215        H252   0.989       .  S
O216        H247   0.990       .  S
O216        H261   0.990       .  S
O218        H244   0.966       .  S
O219       Zr229   2.376       .  S
O220       Zr229   2.358       .  S
O220        H245   0.964       .  S
C221       C1074   1.485       .  S
C222       C1091   1.499       .  S
C223       C1130   1.465       .  S
O224        H260   0.991       .  S
O225        C227   1.267       .  A
O226        C227   1.294       .  A
C227       C1189   1.493       .  S
O228       Zr229   2.439       .  S
O228        H257   0.990       .  S
Zr229       O232   2.438       .  S
Zr229       O233   2.439       .  S
Zr229       O234   2.478       .  S
O230        C235   1.285       .  A
O231        H248   0.990       .  S
O231        H263   0.990       .  S
O232        H249   0.990       .  S
O233        H253   0.990       .  S
O233        H262   0.990       .  S
O234        C235   1.293       .  A
C235       C1287   1.505       .  S
O236        H255   0.990       .  S
O236        H259   0.990       .  S
O237        H251   0.990       .  S
O237        H258   0.990       .  S
O238        C242   1.282       .  A
O239        C242   1.273       .  A
O240        H250   0.990       .  S
O241        H254   0.990       .  S
C242       C1144   1.473       .  S
Zr265       O266   2.434       .  S
Zr265       O267   2.417       .  S
Zr265       O268   2.493       .  S
Zr265       O271   2.438       .  S
Zr265       O273   2.371       .  S
Zr265       O274   2.391       .  S
Zr265       O275   2.410       .  S
Zr265       O276   2.420       .  S
O266        H322   0.990       .  S
O266        H330   0.990       .  S
O267        C287   1.284       .  A
O268        C289   1.291       .  A
O269       Zr279   2.390       .  S
O269        C288   1.277       .  A
O270       Zr278   2.404       .  S
O270        C289   1.266       .  A
O271        C288   1.287       .  A
O272       Zr280   2.483       .  S
O272        C287   1.294       .  A
O273       Zr278   2.385       .  S
O273       Zr280   2.367       .  S
O274       Zr279   2.374       .  S
O274       Zr280   2.358       .  S
O274        H309   0.965       .  S
O275       Zr278   2.411       .  S
O275       Zr295   2.407       .  S
O275        H312   0.966       .  S
O276       Zr279   2.392       .  S
O276       Zr295   2.392       .  S
Zr277       O302   2.436       .  S
Zr277       O296   2.441       .  S
Zr277       O304   2.456       .  S
Zr277       O292   2.456       .  S
Zr277       O283   2.407       .  S
Zr277       O284   2.419       .  S
Zr277       O285   2.379       .  S
Zr277       O286   2.383       .  S
Zr278       O297   2.444       .  S
Zr278       O290   2.439       .  S
Zr278       O291   2.392       .  S
Zr278       O284   2.404       .  S
Zr278       O285   2.384       .  S
Zr279       O281   2.434       .  S
Zr279       O303   2.441       .  S
Zr279       O305   2.413       .  S
Zr279       O283   2.384       .  S
Zr279       O286   2.364       .  S
Zr280       O306   2.435       .  S
Zr280       O307   2.436       .  S
Zr280       O282   2.438       .  S
Zr280       O283   2.409       .  S
Zr280       O284   2.425       .  S
O281        H318   0.990       .  S
O282        H313   0.990       .  S
O282        H327   0.990       .  S
O284        H310   0.966       .  S
O285       Zr295   2.357       .  S
O286       Zr295   2.377       .  S
O286        H311   0.966       .  S
C287       C1018   1.501       .  S
C288       C1049   1.453       .  S
C289       C1060   1.490       .  S
O290        H326   0.990       .  S
O291        C293   1.273   1_554  A
O292        C293   1.286   1_554  A
C293       C1035   1.463       .  S
O294       Zr295   2.439       .  S
O294        H323   0.990       .  S
Zr295       O298   2.439       .  S
Zr295       O299   2.438       .  S
Zr295       O300   2.437       .  S
O296        C301   1.286       .  A
O297        H314   0.990       .  S
O297        H329   0.990       .  S
O298        H315   0.990       .  S
O299        H319   0.990       .  S
O299        H328   0.989       .  S
O300        C301   1.286       .  A
C301       C1004   1.498       .  S
O302        H321   0.990       .  S
O302        H325   0.990       .  S
O303        H317   0.990       .  S
O303        H324   0.990       .  S
O304        C308   1.289       .  A
O305        C308   1.281       .  A
O306        H316   0.990       .  S
O307        H320   0.990       .  S
C308       C1116   1.497       .  S
Zr331       O332   2.435       .  S
Zr331       O333   2.424       .  S
Zr331       O334   2.505       .  S
Zr331       O337   2.444       .  S
Zr331       O339   2.370       .  S
Zr331       O340   2.394       .  S
Zr331       O341   2.400       .  S
Zr331       O342   2.424       .  S
O332        H388   0.990       .  S
O332        H396   0.990       .  S
O333        C353   1.285       .  A
O334        C355   1.296       .  A
O335       Zr345   2.390       .  S
O335        C354   1.278       .  A
O336       Zr344   2.397       .  S
O336        C355   1.269       .  A
O337        C354   1.288       .  A
O338       Zr346   2.493       .  S
O338        C353   1.295       .  A
O339       Zr344   2.384       .  S
O339       Zr346   2.373       .  S
O340       Zr345   2.382       .  S
O340       Zr346   2.352       .  S
O340        H375   0.964       .  S
O341       Zr344   2.407       .  S
O341       Zr361   2.403       .  S
O341        H378   0.966       .  S
O342       Zr345   2.396       .  S
O342       Zr361   2.392       .  S
Zr343       O368   2.441       .  S
Zr343       O362   2.458       .  S
Zr343       O370   2.464       .  S
Zr343       O358   2.457       .  S
Zr343       O349   2.413       .  S
Zr343       O350   2.428       .  S
Zr343       O351   2.375       .  S
Zr343       O352   2.382       .  S
Zr344       O363   2.445       .  S
Zr344       O356   2.437       .  S
Zr344       O357   2.392       .  S
Zr344       O350   2.399       .  S
Zr344       O351   2.380       .  S
Zr345       O347   2.436       .  S
Zr345       O369   2.440       .  S
Zr345       O371   2.419       .  S
Zr345       O349   2.385       .  S
Zr345       O352   2.372       .  S
Zr346       O372   2.436       .  S
Zr346       O373   2.436       .  S
Zr346       O348   2.438       .  S
Zr346       O349   2.418       .  S
Zr346       O350   2.428       .  S
O347        H384   0.990       .  S
O348        H379   0.990       .  S
O348        H393   0.990       .  S
O350        H376   0.966       .  S
O351       Zr361   2.355       .  S
O352       Zr361   2.379       .  S
O352        H377   0.966       .  S
C353        C976   1.508       .  S
C354       C1032   1.454       .  S
C355        C990   1.497       .  S
O356        H392   0.990       .  S
O357        C359   1.271       .  A
O358        C359   1.285       .  A
C359       C1046   1.455       .  S
O360       Zr361   2.438       .  S
O360        H389   0.990       .  S
Zr361       O364   2.437       .  S
Zr361       O365   2.438       .  S
Zr361       O366   2.435       .  S
O362        C367   1.290       .  A
O363        H380   0.990       .  S
O363        H395   0.990       .  S
O364        H381   0.990       .  S
O365        H385   0.990       .  S
O365        H394   0.990       .  S
O366        C367   1.286       .  A
C367        C962   1.498       .  S
O368        H387   0.990       .  S
O368        H391   0.990       .  S
O369        H383   0.989       .  S
O369        H390   0.990       .  S
O370        C374   1.292       .  A
O371        C374   1.279       .  A
O372        H382   0.990       .  S
O373        H386   0.990       .  S
C374       C1088   1.504       .  S
Zr397       O398   2.436       .  S
Zr397       O399   2.408       .  S
Zr397       O400   2.493       .  S
Zr397       O403   2.447       .  S
Zr397       O405   2.372       .  S
Zr397       O406   2.390       .  S
Zr397       O407   2.396       .  S
Zr397       O408   2.414       .  S
O398        H454   0.990       .  S
O398        H462   0.990       .  S
O399        C419   1.281       .  A
O400        C421   1.296       .  A
O401       Zr411   2.381       .  S
O401        C420   1.276       .  A
O402       Zr410   2.372       .  S
O402        C421   1.273       .  A
O403        C420   1.288       .  A
O404       Zr412   2.499       .  S
O404        C419   1.297       .  A
O405       Zr410   2.379       .  S
O405       Zr412   2.366       .  S
O406       Zr411   2.377       .  S
O406       Zr412   2.352       .  S
O406        H441   0.964       .  S
O407       Zr410   2.385       .  S
O407       Zr427   2.404       .  S
O407        H444   0.966       .  S
O408       Zr411   2.400       .  S
O408       Zr427   2.391       .  S
Zr409       O434   2.438       .  S
Zr409       O428   2.451       .  S
Zr409       O436   2.445       .  S
Zr409       O424   2.451       .  S
Zr409       O415   2.416       .  S
Zr409       O416   2.422       .  S
Zr409       O417   2.371       .  S
Zr409       O418   2.377       .  S
Zr410       O429   2.436       .  S
Zr410       O422   2.437       .  S
Zr410       O423   2.380       .  S
Zr410       O416   2.385       .  S
Zr410       O417   2.370       .  S
Zr411       O413   2.433       .  S
Zr411       O435   2.439       .  S
Zr411       O437   2.421       .  S
Zr411       O415   2.381       .  S
Zr411       O418   2.368       .  S
Zr412       O438   2.436       .  S
Zr412       O439   2.435       .  S
Zr412       O414   2.438       .  S
Zr412       O415   2.418       .  S
Zr412       O416   2.429       .  S
O413        H450   0.990       .  S
O414        H445   0.990       .  S
O414        H459   0.990       .  S
O416        H442   0.966       .  S
O417       Zr427   2.364       .  S
O418       Zr427   2.377       .  S
O418        H443   0.966       .  S
C419        C993   1.504       .  S
C420        C934   1.452       .  S
C421       C1021   1.479       .  S
O422        H458   0.990       .  S
O423        C425   1.275       .  A
O424        C425   1.287       .  A
C425        C951   1.463       .  S
O426       Zr427   2.436       .  S
O426        H455   0.990       .  S
Zr427       O430   2.436       .  S
Zr427       O431   2.438       .  S
Zr427       O432   2.427       .  S
O428        C433   1.287       .  A
O429        H446   0.990       .  S
O429        H461   0.990       .  S
O430        H447   0.990       .  S
O431        H451   0.990       .  S
O431        H460   0.990       .  S
O432        C433   1.285       .  A
C433        C923   1.503       .  S
O434        H453   0.990       .  S
O434        H457   0.990       .  S
O435        H449   0.990       .  S
O435        H456   0.990       .  S
O436        C440   1.287       .  A
O437        C440   1.283       .  A
O438        H448   0.990       .  S
O439        H452   0.990       .  S
C440       C1228   1.495       .  S
Zr463       O464   2.435       .  S
Zr463       O465   2.412       .  S
Zr463       O466   2.507       .  S
Zr463       O469   2.455   1_556  S
Zr463       O471   2.372       .  S
Zr463       O472   2.402       .  S
Zr463       O473   2.411       .  S
Zr463       O474   2.421       .  S
O464        H520   0.990       .  S
O464        H528   0.990   1_556  S
O465        C485   1.282       .  A
O466        C487   1.294       .  A
O467       Zr477   2.400   1_554  S
O467        C486   1.272       .  A
O468       Zr476   2.398       .  S
O468        C487   1.267       .  A
O469        C486   1.287       .  A
O470       Zr478   2.478       .  S
O470        C485   1.294       .  A
O471       Zr476   2.382       .  S
O471       Zr478   2.367       .  S
O472       Zr477   2.385       .  S
O472       Zr478   2.357       .  S
O472        H507   0.965       .  S
O473       Zr476   2.409       .  S
O473       Zr493   2.406       .  S
O473        H510   0.966       .  S
O474       Zr477   2.400       .  S
O474       Zr493   2.385       .  S
Zr475       O500   2.440       .  S
Zr475       O494   2.448       .  S
Zr475       O502   2.433       .  S
Zr475       O490   2.444       .  S
Zr475       O481   2.408       .  S
Zr475       O482   2.414       .  S
Zr475       O483   2.370       .  S
Zr475       O484   2.380       .  S
Zr476       O495   2.443       .  S
Zr476       O488   2.436       .  S
Zr476       O489   2.387       .  S
Zr476       O482   2.396       .  S
Zr476       O483   2.377       .  S
Zr477       O479   2.435   1_556  S
Zr477       O501   2.438   1_556  S
Zr477       O503   2.431       .  S
Zr477       O481   2.388       .  S
Zr477       O484   2.371       .  S
Zr478       O504   2.435       .  S
Zr478       O505   2.436       .  S
Zr478       O480   2.437       .  S
Zr478       O481   2.414       .  S
Zr478       O482   2.424       .  S
O479        H516   0.990       .  S
O480        H511   0.990       .  S
O480        H525   0.989       .  S
O482        H508   0.966       .  S
O483       Zr493   2.355       .  S
O484       Zr493   2.376       .  S
O484        H509   0.966       .  S
C485       C1063   1.508   1_556  S
C486        C948   1.478       .  S
C487        C979   1.502       .  S
O488        H524   0.990       .  S
O489        C491   1.274       .  A
O490        C491   1.285       .  A
C491        C937   1.458       .  S
O492       Zr493   2.438       .  S
O492        H521   0.991       .  S
Zr493       O496   2.437       .  S
Zr493       O497   2.440       .  S
Zr493       O498   2.436       .  S
O494        C499   1.288       .  A
O495        H512   0.990       .  S
O495        H527   0.990       .  S
O496        H513   0.990       .  S
O497        H517   0.989       .  S
O497        H526   0.990       .  S
O498        C499   1.286       .  A
C499        C909   1.499       .  S
O500        H519   0.990       .  S
O500        H523   0.990       .  S
O501        H515   0.990       .  S
O501        H522   0.990       .  S
O502        C506   1.286       .  A
O503        C506   1.285       .  A
O504        H514   0.990       .  S
O505        H518   0.990       .  S
C506       C1172   1.490       .  S
Zr529       O530   2.435       .  S
Zr529       O531   2.405       .  S
Zr529       O532   2.514       .  S
Zr529       O535   2.465   1_554  S
Zr529       O537   2.378       .  S
Zr529       O538   2.389       .  S
Zr529       O539   2.407       .  S
Zr529       O540   2.419       .  S
O530        H586   0.990       .  S
O530        H594   0.990       .  S
O531        C551   1.280       .  A
O532        C553   1.296       .  A
O533       Zr543   2.370   1_556  S
O533        C552   1.275       .  A
O534       Zr542   2.389       .  S
O534        C553   1.267       .  A
O535        C552   1.293       .  A
O536       Zr544   2.495       .  S
O536        C551   1.297       .  A
O537       Zr542   2.381       .  S
O537       Zr544   2.368       .  S
O538       Zr543   2.380       .  S
O538       Zr544   2.353       .  S
O538        H573   0.965       .  S
O539       Zr542   2.402       .  S
O539       Zr559   2.394       .  S
O539        H576   0.966       .  S
O540       Zr543   2.390       .  S
O540       Zr559   2.387       .  S
Zr541       O566   2.441       .  S
Zr541       O560   2.451       .  S
Zr541       O568   2.454       .  S
Zr541       O556   2.448       .  S
Zr541       O547   2.413       .  S
Zr541       O548   2.423       .  S
Zr541       O549   2.377       .  S
Zr541       O550   2.378       .  S
Zr542       O561   2.442       .  S
Zr542       O554   2.435       .  S
Zr542       O555   2.376       .  S
Zr542       O548   2.390       .  S
Zr542       O549   2.376       .  S
Zr543       O545   2.436       .  S
Zr543       O567   2.437       .  S
Zr543       O569   2.413       .  S
Zr543       O547   2.381       .  S
Zr543       O550   2.365       .  S
Zr544       O570   2.436       .  S
Zr544       O571   2.435       .  S
Zr544       O546   2.436       .  S
Zr544       O547   2.418       .  S
Zr544       O548   2.427       .  S
O545        H582   0.990   1_554  S
O546        H577   0.990       .  S
O546        H591   0.990       .  S
O548        H574   0.966       .  S
O549       Zr559   2.368       .  S
O550       Zr559   2.376       .  S
O550        H575   0.966       .  S
C551        C892   1.510   1_554  S
C552        C850   1.473       .  S
C553        C881   1.500       .  S
O554        H590   0.990       .  S
O555        C557   1.274       .  A
O556        C557   1.286       .  A
C557        C867   1.464       .  S
O558       Zr559   2.439       .  S
O558        H587   0.990       .  S
Zr559       O562   2.435       .  S
Zr559       O563   2.443       .  S
Zr559       O564   2.417       .  S
O560        C565   1.288       .  A
O561        H578   0.990       .  S
O561        H593   0.990       .  S
O562        H579   0.990       .  S
O563        H583   0.990       .  S
O563        H592   0.990       .  S
O564        C565   1.282       .  A
C565        C920   1.481       .  S
O566        H585   0.990       .  S
O566        H589   0.990       .  S
O567        H581   0.990       .  S
O567        H588   0.990   1_554  S
O568        C572   1.288       .  A
O569        C572   1.280       .  A
O570        H580   0.990       .  S
O571        H584   0.990       .  S
C572       C1161   1.477       .  S
Zr595       O596   2.433       .  S
Zr595       O597   2.417       .  S
Zr595       O598   2.492       .  S
Zr595       O601   2.434       .  S
Zr595       O603   2.370       .  S
Zr595       O604   2.401       .  S
Zr595       O605   2.413       .  S
Zr595       O606   2.424       .  S
O596        H652   0.990       .  S
O596        H660   0.990       .  S
O597        C617   1.282       .  A
O598        C619   1.291       .  A
O599       Zr609   2.404       .  S
O599        C618   1.273       .  A
O600       Zr608   2.404       .  S
O600        C619   1.269       .  A
O601        C618   1.285       .  A
O602       Zr610   2.492       .  S
O602        C617   1.296       .  A
O603       Zr608   2.381       .  S
O603       Zr610   2.369       .  S
O604       Zr609   2.379       .  S
O604       Zr610   2.360       .  S
O604        H639   0.964       .  S
O605       Zr608   2.407       .  S
O605       Zr625   2.412       .  S
O605        H642   0.966       .  S
O606       Zr609   2.394       .  S
O606       Zr625   2.384       .  S
Zr607       O632   2.437       .  S
Zr607       O626   2.449       .  S
Zr607       O634   2.454       .  S
Zr607       O622   2.461       .  S
Zr607       O613   2.405       .  S
Zr607       O614   2.420       .  S
Zr607       O615   2.374       .  S
Zr607       O616   2.384       .  S
Zr608       O627   2.444       .  S
Zr608       O620   2.438       .  S
Zr608       O621   2.384       .  S
Zr608       O614   2.399       .  S
Zr608       O615   2.381       .  S
Zr609       O611   2.436       .  S
Zr609       O633   2.439       .  S
Zr609       O635   2.421       .  S
Zr609       O613   2.388       .  S
Zr609       O616   2.375       .  S
Zr610       O636   2.435       .  S
Zr610       O637   2.437       .  S
Zr610       O612   2.437       .  S
Zr610       O613   2.408       .  S
Zr610       O614   2.428       .  S
O611        H648   0.990       .  S
O612        H643   0.990       .  S
O612        H657   0.989       .  S
O614        H640   0.965       .  S
O615       Zr625   2.354       .  S
O616       Zr625   2.382       .  S
O616        H641   0.966       .  S
C617        C839   1.508       .  S
C618        C864   1.474       .  S
C619        C822   1.497       .  S
O620        H656   0.990       .  S
O621        C623   1.272       .  A
O622        C623   1.287       .  A
C623        C853   1.458       .  S
O624       Zr625   2.437       .  S
O624        H653   0.990       .  S
Zr625       O628   2.436       .  S
Zr625       O629   2.439       .  S
Zr625       O630   2.435       .  S
O626        C631   1.287       .  A
O627        H644   0.990       .  S
O627        H659   0.990       .  S
O628        H645   0.990       .  S
O629        H649   0.990       .  S
O629        H658   0.990       .  S
O630        C631   1.285       .  A
C631        C906   1.483       .  S
O632        H651   0.990       .  S
O632        H655   0.990       .  S
O633        H647   0.990       .  S
O633        H654   0.990       .  S
O634        C638   1.289       .  A
O635        C638   1.283       .  A
O636        H646   0.990       .  S
O637        H650   0.990       .  S
C638       C1217   1.483       .  S
Zr661       O662   2.435       .  S
Zr661       O663   2.415       .  S
Zr661       O664   2.495       .  S
Zr661       O667   2.436       .  S
Zr661       O669   2.372       .  S
Zr661       O670   2.388       .  S
Zr661       O671   2.406       .  S
Zr661       O672   2.420       .  S
O662        H718   0.991       .  S
O662        H726   0.990       .  S
O663        C683   1.282       .  A
O664        C685   1.291       .  A
O665       Zr675   2.379       .  S
O665        C684   1.277       .  A
O666       Zr674   2.397       .  S
O666        C685   1.265       .  A
O667        C684   1.287       .  A
O668       Zr676   2.503       .  S
O668        C683   1.298       .  A
O669       Zr674   2.384       .  S
O669       Zr676   2.370       .  S
O670       Zr675   2.381       .  S
O670       Zr676   2.353       .  S
O670        H705   0.964       .  S
O671       Zr674   2.416       .  S
O671       Zr691   2.410       .  S
O671        H708   0.966       .  S
O672       Zr675   2.396       .  S
O672       Zr691   2.391       .  S
Zr673       O698   2.438       .  S
Zr673       O692   2.447       .  S
Zr673       O700   2.459       .  S
Zr673       O688   2.441       .  S
Zr673       O679   2.404       .  S
Zr673       O680   2.423       .  S
Zr673       O681   2.367       .  S
Zr673       O682   2.377       .  S
Zr674       O693   2.444       .  S
Zr674       O686   2.439       .  S
Zr674       O687   2.386       .  S
Zr674       O680   2.400       .  S
Zr674       O681   2.375       .  S
Zr675       O677   2.436       .  S
Zr675       O699   2.438       .  S
Zr675       O701   2.422       .  S
Zr675       O679   2.378       .  S
Zr675       O682   2.365       .  S
Zr676       O702   2.435       .  S
Zr676       O703   2.435       .  S
Zr676       O678   2.437       .  S
Zr676       O679   2.415       .  S
Zr676       O680   2.431       .  S
O677        H714   0.990       .  S
O678        H709   0.990       .  S
O678        H723   0.990       .  S
O680        H706   0.966       .  S
O681       Zr691   2.347       .  S
O682       Zr691   2.381       .  S
O682        H707   0.966       .  S
C683        C878   1.509       .  S
C684        C808   1.456       .  S
C685        C836   1.490       .  S
O686        H722   0.990       .  S
O687        C689   1.275       .  A
O688        C689   1.285       .  A
C689        C794   1.456       .  S
O690       Zr691   2.438       .  S
O690        H719   0.990       .  S
Zr691       O694   2.437       .  S
Zr691       O695   2.436       .  S
Zr691       O696   2.447       .  S
O692        C697   1.287       .  A
O693        H710   0.990       .  S
O693        H725   0.990       .  S
O694        H711   0.990       .  S
O695        H715   0.990       .  S
O695        H724   0.990       .  S
O696        C697   1.289       .  A
C697        C965   1.505       .  S
O698        H717   0.990       .  S
O698        H721   0.991       .  S
O699        H713   0.990       .  S
O699        H720   0.990       .  S
O700        C704   1.289       .  A
O701        C704   1.282       .  A
O702        H712   0.990       .  S
O703        H716   0.991       .  S
C704       C1102   1.480       .  S
Zr727       O728   2.436       .  S
Zr727       O729   2.426       .  S
Zr727       O730   2.495       .  S
Zr727       O733   2.420       .  S
Zr727       O735   2.370       .  S
Zr727       O736   2.399       .  S
Zr727       O737   2.404       .  S
Zr727       O738   2.414       .  S
O728        H784   0.990       .  S
O728        H792   0.990       .  S
O729        C749   1.285       .  A
O730        C751   1.291       .  A
O731       Zr741   2.380       .  S
O731        C750   1.278       .  A
O732       Zr740   2.398       .  S
O732        C751   1.265       .  A
O733        C750   1.284       .  A
O734       Zr742   2.481       .  S
O734        C749   1.293       .  A
O735       Zr740   2.385       .  S
O735       Zr742   2.368       .  S
O736       Zr741   2.386       .  S
O736       Zr742   2.362       .  S
O736        H771   0.965       .  S
O737       Zr740   2.411       .  S
O737       Zr757   2.405       .  S
O737        H774   0.966       .  S
O738       Zr741   2.388       .  S
O738       Zr757   2.373       .  S
Zr739       O764   2.438       .  S
Zr739       O758   2.450       .  S
Zr739       O766   2.445       .  S
Zr739       O754   2.427   1_556  S
Zr739       O745   2.405       .  S
Zr739       O746   2.425       .  S
Zr739       O747   2.377       .  S
Zr739       O748   2.376       .  S
Zr740       O759   2.442   1_556  S
Zr740       O752   2.437       .  S
Zr740       O753   2.387       .  S
Zr740       O746   2.405       .  S
Zr740       O747   2.381       .  S
Zr741       O743   2.434       .  S
Zr741       O765   2.437       .  S
Zr741       O767   2.423       .  S
Zr741       O745   2.377       .  S
Zr741       O748   2.367       .  S
Zr742       O768   2.434       .  S
Zr742       O769   2.435       .  S
Zr742       O744   2.437       .  S
Zr742       O745   2.408       .  S
Zr742       O746   2.427       .  S
O743        H780   0.990       .  S
O744        H775   0.990       .  S
O744        H789   0.990       .  S
O746        H772   0.966       .  S
O747       Zr757   2.356       .  S
O748       Zr757   2.385       .  S
O748        H773   0.966       .  S
C749        C825   1.505       .  S
C750        C797   1.469       .  S
C751        C895   1.488       .  S
O752        H788   0.990   1_556  S
O753        C755   1.271   1_556  A
O754        C755   1.280       .  A
C755        C811   1.468       .  S
O756       Zr757   2.440       .  S
O756        H785   0.990       .  S
Zr757       O760   2.437       .  S
Zr757       O761   2.440       .  S
Zr757       O762   2.418       .  S
O758        C763   1.287       .  A
O759        H776   0.990   1_554  S
O759        H791   0.990       .  S
O760        H777   0.990       .  S
O761        H781   0.990       .  S
O761        H790   0.990       .  S
O762        C763   1.283       .  A
C763       C1007   1.489       .  S
O764        H783   0.990       .  S
O764        H787   0.990       .  S
O765        H779   0.990       .  S
O765        H786   0.990       .  S
O766        C770   1.286       .  A
O767        C770   1.282       .  A
O768        H778   0.990       .  S
O769        H782   0.990       .  S
C770       C1077   1.483       .  S
C793        C794   1.404       .  A
C793        C798   1.387       .  A
C793        H800   1.083       .  S
C794        C795   1.401       .  A
C795        C796   1.393       .  A
C795        N802   1.438       .  S
C796        C797   1.412       .  A
C796        H801   1.084       .  S
C797        C798   1.413       .  A
C798        N799   1.433       .  S
N799        H803   1.044       .  S
N799        H804   1.046       .  S
N802        H805   1.045       .  S
N802        H806   1.046       .  S
C807        C808   1.403       .  A
C807        C812   1.393       .  A
C807        H814   1.084       .  S
C808        C809   1.401       .  A
C809        C810   1.398       .  A
C809        N816   1.438       .  S
C810        C811   1.411       .  A
C810        H815   1.083       .  S
C811        C812   1.409       .  A
C812        N813   1.439       .  S
N813        H817   1.046       .  S
N813        H818   1.046       .  S
N816        H819   1.046       .  S
N816        H820   1.046       .  S
C821        C822   1.411       .  A
C821        C826   1.413   1_545  A
C821        H828   1.084       .  S
C822        C823   1.408   1_545  A
C823        C824   1.410       .  A
C823        N830   1.432       .  S
C824        C825   1.413       .  A
C824        H829   1.082       .  S
C825        C826   1.415       .  A
C826        N827   1.437       .  S
N827        H831   1.045       .  S
N827        H832   1.045       .  S
N830        H833   1.045       .  S
N830        H834   1.045       .  S
C835        C836   1.399   1_545  A
C835        C840   1.406       .  A
C835        H842   1.084       .  S
C836        C837   1.424   1_565  A
C837        C838   1.411       .  A
C837        N844   1.438       .  S
C838        C839   1.407       .  A
C838        H843   1.083       .  S
C839        C840   1.424       .  A
C840        N841   1.433       .  S
N841        H845   1.045       .  S
N841        H846   1.046       .  S
N844        H847   1.044   1_545  S
N844        H848   1.046       .  S
C849        C850   1.410       .  A
C849        C854   1.397       .  A
C849        H856   1.084       .  S
C850        C851   1.408       .  A
C851        C852   1.392       .  A
C851        N858   1.429       .  S
C852        C853   1.404       .  A
C852        H857   1.084       .  S
C853        C854   1.409       .  A
C854        N855   1.438       .  S
N855        H859   1.045       .  S
N855        H860   1.042       .  S
N858        H861   1.045       .  S
N858        H862   1.045       .  S
C863        C864   1.402       .  A
C863        C868   1.395       .  A
C863        H870   1.082       .  S
C864        C865   1.414       .  A
C865        C866   1.403       .  A
C865        N872   1.432       .  S
C866        C867   1.400       .  A
C866        H871   1.084       .  S
C867        C868   1.409       .  A
C868        N869   1.434       .  S
N869        H873   1.046       .  S
N869        H874   1.046       .  S
N872        H875   1.045       .  S
N872        H876   1.046       .  S
C877        C878   1.403       .  A
C877        C882   1.411   1_565  A
C877        H884   1.083       .  S
C878        C879   1.425       .  A
C879        C880   1.415       .  A
C879        N886   1.438       .  S
C880        C881   1.402   1_565  A
C880        H885   1.084       .  S
C881        C882   1.426       .  A
C882        N883   1.437       .  S
N883        H887   1.045       .  S
N883        H888   1.044       .  S
N886        H889   1.045       .  S
N886        H890   1.046       .  S
C891        C892   1.409       .  A
C891        C896   1.417       .  A
C891        H898   1.083       .  S
C892        C893   1.424       .  A
C893        C894   1.405   1_545  A
C893        N900   1.433       .  S
C894        C895   1.398       .  A
C894        H899   1.084       .  S
C895        C896   1.417   1_565  A
C896        N897   1.438       .  S
N897        H901   1.046       .  S
N897        H902   1.045   1_545  S
N900        H903   1.044       .  S
N900        H904   1.046   1_545  S
C905        C906   1.400       .  A
C905        C910   1.404       .  A
C905        H912   1.084       .  S
C906        C907   1.418       .  A
C907        C908   1.411       .  A
C907        N914   1.438       .  S
C908        C909   1.409       .  A
C908        H913   1.084       .  S
C909        C910   1.418       .  A
C910        N911   1.438       .  S
N911        H915   1.046       .  S
N911        H916   1.045       .  S
N914        H917   1.043       .  S
N914        H918   1.046       .  S
C919        C920   1.402       .  A
C919        C924   1.414       .  A
C919        H926   1.084       .  S
C920        C921   1.409       .  A
C921        C922   1.402       .  A
C921        N928   1.439       .  S
C922        C923   1.411       .  A
C922        H927   1.083       .  S
C923        C924   1.422       .  A
C924        N925   1.437       .  S
N925        H929   1.046       .  S
N925        H930   1.046       .  S
N928        H931   1.046       .  S
N928        H932   1.046       .  S
C933        C934   1.396       .  A
C933        C938   1.399       .  A
C933        H940   1.084       .  S
C934        C935   1.409       .  A
C935        C936   1.395       .  A
C935        N942   1.439       .  S
C936        C937   1.398       .  A
C936        H941   1.084       .  S
C937        C938   1.420       .  A
C938        N939   1.440       .  S
N939        H943   1.046       .  S
N939        H944   1.043       .  S
N942        H945   1.045       .  S
N942        H946   1.046       .  S
C947        C948   1.407       .  A
C947        C952   1.403       .  A
C947        H954   1.084       .  S
C948        C949   1.412       .  A
C949        C950   1.398       .  A
C949        N956   1.436       .  S
C950        C951   1.400       .  A
C950        H955   1.085       .  S
C951        C952   1.415       .  A
C952        N953   1.439       .  S
N953        H957   1.046       .  S
N953        H958   1.042       .  S
N956        H959   1.044       .  S
N956        H960   1.046       .  S
C961        C962   1.406       .  A
C961        C966   1.409       .  A
C961        H968   1.084       .  S
C962        C963   1.413       .  A
C963        C964   1.406       .  A
C963        N970   1.433       .  S
C964        C965   1.408       .  A
C964        H969   1.084       .  S
C965        C966   1.424       .  A
C966        N967   1.432       .  S
N967        H971   1.045       .  S
N967        H972   1.045       .  S
N970        H973   1.046       .  S
N970        H974   1.046       .  S
C975        C976   1.413       .  A
C975        C980   1.414       .  A
C975        H982   1.083       .  S
C976        C977   1.411       .  A
C977        C978   1.414       .  A
C977        N984   1.432       .  S
C978        C979   1.413   1_455  A
C978        H983   1.084   1_455  S
C979        C980   1.412   1_655  A
C980        N981   1.437       .  S
N981        H985   1.046       .  S
N981        H986   1.045       .  S
N984        H987   1.046       .  S
N984        H988   1.046       .  S
C989        C990   1.400   1_655  A
C989        C994   1.408       .  A
C989        H996   1.084       .  S
C990        C991   1.428       .  A
C991        C992   1.413   1_455  A
C991        N998   1.439       .  S
C992        C993   1.403       .  A
C992        H997   1.084       .  S
C993        C994   1.421       .  A
C994        N995   1.433       .  S
N995        H999   1.046       .  S
N995       H1000   1.046       .  S
N998       H1001   1.044       .  S
N998       H1002   1.046       .  S
C1003      C1004   1.406       .  A
C1003      C1008   1.402       .  A
C1003      H1010   1.083       .  S
C1004      C1005   1.420       .  A
C1005      C1006   1.413   1_554  A
C1005      N1012   1.438       .  S
C1006      C1007   1.405       .  A
C1006      H1011   1.084       .  S
C1007      C1008   1.413   1_556  A
C1008      N1009   1.439       .  S
N1009      H1013   1.046       .  S
N1009      H1014   1.046       .  S
N1012      H1015   1.046       .  S
N1012      H1016   1.046       .  S
C1017      C1018   1.411       .  A
C1017      C1022   1.404       .  A
C1017      H1024   1.084       .  S
C1018      C1019   1.414       .  A
C1019      C1020   1.414       .  A
C1019      N1026   1.437       .  S
C1020      C1021   1.410   1_455  A
C1020      H1025   1.084   1_455  S
C1021      C1022   1.413   1_655  A
C1022      N1023   1.439       .  S
N1023      H1027   1.046       .  S
N1023      H1028   1.043   1_455  S
N1026      H1029   1.046       .  S
N1026      H1030   1.046       .  S
C1031      C1032   1.396       .  A
C1031      C1036   1.402       .  A
C1031      H1038   1.084       .  S
C1032      C1033   1.410       .  A
C1033      C1034   1.398       .  A
C1033      N1040   1.438       .  S
C1034      C1035   1.397       .  A
C1034      H1039   1.084       .  S
C1035      C1036   1.416       .  A
C1036      N1037   1.438       .  S
N1037      H1041   1.046       .  S
N1037      H1042   1.046       .  S
N1040      H1043   1.046       .  S
N1040      H1044   1.046       .  S
C1045      C1046   1.402       .  A
C1045      C1050   1.397       .  A
C1045      H1052   1.085       .  S
C1046      C1047   1.414       .  A
C1047      C1048   1.395       .  A
C1047      N1054   1.439       .  S
C1048      C1049   1.400       .  A
C1048      H1053   1.085       .  S
C1049      C1050   1.412       .  A
C1050      N1051   1.439       .  S
N1051      H1055   1.046       .  S
N1051      H1056   1.044       .  S
N1054      H1057   1.043       .  S
N1054      H1058   1.046       .  S
C1059      C1060   1.400       .  A
C1059      C1064   1.409   1_455  A
C1059      H1066   1.083       .  S
C1060      C1061   1.420   1_455  A
C1061      C1062   1.410       .  A
C1061      N1068   1.438   1_655  S
C1062      C1063   1.409       .  A
C1062      H1067   1.083       .  S
C1063      C1064   1.425       .  A
C1064      N1065   1.439       .  S
N1065      H1069   1.046       .  S
N1065      H1070   1.046       .  S
N1068      H1071   1.044       .  S
N1068      H1072   1.046   1_455  S
C1073      C1074   1.404       .  A
C1073      C1078   1.401       .  A
C1073      H1080   1.084       .  S
C1074      C1075   1.421       .  A
C1075      C1076   1.410       .  A
C1075      N1082   1.439       .  S
C1076      C1077   1.405       .  A
C1076      H1081   1.084       .  S
C1077      C1078   1.408       .  A
C1078      N1079   1.433       .  S
N1079      H1083   1.046       .  S
N1079      H1084   1.046       .  S
N1082      H1085   1.043       .  S
N1082      H1086   1.046       .  S
C1087      C1088   1.405       .  A
C1087      C1092   1.402       .  A
C1087      H1094   1.084       .  S
C1088      C1089   1.427       .  A
C1089      C1090   1.407       .  A
C1089      N1096   1.433       .  S
C1090      C1091   1.405       .  A
C1090      H1095   1.084       .  S
C1091      C1092   1.421       .  A
C1092      N1093   1.432       .  S
N1093      H1097   1.046       .  S
N1093      H1098   1.044       .  S
N1096      H1099   1.045       .  S
N1096      H1100   1.045       .  S
C1101      C1102   1.401       .  A
C1101      C1106   1.407       .  A
C1101      H1108   1.084       .  S
C1102      C1103   1.410       .  A
C1103      C1104   1.411       .  A
C1103      N1110   1.437       .  S
C1104      C1105   1.408       .  A
C1104      H1109   1.081       .  S
C1105      C1106   1.415       .  A
C1106      N1107   1.432       .  S
N1107      H1111   1.045       .  S
N1107      H1112   1.046       .  S
N1110      H1113   1.045       .  S
N1110      H1114   1.046       .  S
C1115      C1116   1.412       .  A
C1115      C1120   1.400       .  A
C1115      H1122   1.084       .  S
C1116      C1117   1.418       .  A
C1117      C1118   1.402       .  A
C1117      N1124   1.432       .  S
C1118      C1119   1.408       .  A
C1118      H1123   1.084       .  S
C1119      C1120   1.413       .  A
C1120      N1121   1.432       .  S
N1121      H1125   1.045       .  S
N1121      H1126   1.045       .  S
N1124      H1127   1.045       .  S
N1124      H1128   1.045       .  S
C1129      C1130   1.402       .  A
C1129      C1134   1.403       .  A
C1129      H1136   1.085       .  S
C1130      C1131   1.417       .  A
C1131      C1132   1.395       .  A
C1131      N1138   1.441       .  S
C1132      C1133   1.399   1_556  A
C1132      H1137   1.082   1_556  S
C1133      C1134   1.418   1_554  A
C1134      N1135   1.439       .  S
N1135      H1139   1.046       .  S
N1135      H1140   1.044   1_556  S
N1138      H1141   1.043       .  S
N1138      H1142   1.046       .  S
C1143      C1144   1.403       .  A
C1143      C1148   1.398       .  A
C1143      H1150   1.084       .  S
C1144      C1145   1.410       .  A
C1145      C1146   1.405       .  A
C1145      N1152   1.432       .  S
C1146      C1147   1.402       .  A
C1146      H1151   1.084       .  S
C1147      C1148   1.408       .  A
C1148      N1149   1.433       .  S
N1149      H1153   1.046       .  S
N1149      H1154   1.046       .  S
N1152      H1155   1.045       .  S
N1152      H1156   1.046       .  S
C1157      C1158   1.406       .  A
C1157      C1162   1.409       .  A
C1157      H1164   1.084       .  S
C1158      C1159   1.415       .  A
C1159      C1160   1.407       .  A
C1159      N1166   1.438       .  S
C1160      C1161   1.400       .  A
C1160      H1165   1.084       .  S
C1161      C1162   1.412       .  A
C1162      N1163   1.438       .  S
N1163      H1167   1.046       .  S
N1163      H1168   1.045       .  S
N1166      H1169   1.044       .  S
N1166      H1170   1.046       .  S
C1171      C1172   1.406       .  A
C1171      C1176   1.405       .  A
C1171      H1178   1.084       .  S
C1172      C1173   1.411       .  A
C1173      C1174   1.404       .  A
C1173      N1180   1.433       .  S
C1174      C1175   1.409       .  A
C1174      H1179   1.083       .  S
C1175      C1176   1.416       .  A
C1176      N1177   1.433   1_556  S
N1177      H1181   1.046       .  S
N1177      H1182   1.046       .  S
N1180      H1183   1.046       .  S
N1180      H1184   1.046       .  S
C1185      C1186   1.415       .  A
C1185      C1190   1.411       .  A
C1185      H1192   1.082       .  S
C1186      C1187   1.415       .  A
C1187      C1188   1.418       .  A
C1187      N1194   1.437       .  S
C1188      C1189   1.411       .  A
C1188      H1193   1.084       .  S
C1189      C1190   1.408       .  A
C1190      N1191   1.438       .  S
N1191      H1195   1.046       .  S
N1191      H1196   1.045       .  S
N1194      H1197   1.045       .  S
N1194      H1198   1.046       .  S
C1199      C1200   1.410       .  A
C1199      C1204   1.415       .  A
C1199      H1206   1.084       .  S
C1200      C1201   1.410       .  A
C1201      C1202   1.413       .  A
C1201      N1208   1.438   1_554  S
C1202      C1203   1.413       .  A
C1202      H1207   1.082       .  S
C1203      C1204   1.416       .  A
C1204      N1205   1.437       .  S
N1205      H1209   1.046       .  S
N1205      H1210   1.045       .  S
N1208      H1211   1.045       .  S
N1208      H1212   1.046       .  S
C1213      C1214   1.405       .  A
C1213      C1218   1.408       .  A
C1213      H1220   1.084       .  S
C1214      C1215   1.412       .  A
C1215      C1216   1.406       .  A
C1215      N1222   1.439       .  S
C1216      C1217   1.404       .  A
C1216      H1221   1.084       .  S
C1217      C1218   1.421       .  A
C1218      N1219   1.438       .  S
N1219      H1223   1.045       .  S
N1219      H1224   1.042       .  S
N1222      H1225   1.046       .  S
N1222      H1226   1.046       .  S
C1227      C1228   1.409       .  A
C1227      C1232   1.408       .  A
C1227      H1234   1.083       .  S
C1228      C1229   1.414       .  A
C1229      C1230   1.408       .  A
C1229      N1236   1.439       .  S
C1230      C1231   1.412       .  A
C1230      H1235   1.083       .  S
C1231      C1232   1.416       .  A
C1232      N1233   1.438       .  S
N1233      H1237   1.046       .  S
N1233      H1238   1.045       .  S
N1236      H1239   1.045       .  S
N1236      H1240   1.046       .  S
C1241      C1242   1.398       .  A
C1241      C1246   1.401       .  A
C1241      H1248   1.084       .  S
C1242      C1243   1.414       .  A
C1243      C1244   1.398       .  A
C1243      N1250   1.434       .  S
C1244      C1245   1.397       .  A
C1244      H1249   1.081       .  S
C1245      C1246   1.414       .  A
C1246      N1247   1.433       .  S
N1247      H1251   1.046       .  S
N1247      H1252   1.046       .  S
N1250      H1253   1.046       .  S
N1250      H1254   1.046       .  S
C1255      C1256   1.404       .  A
C1255      C1260   1.401       .  A
C1255      H1262   1.084       .  S
C1256      C1257   1.412       .  A
C1257      C1258   1.396       .  A
C1257      N1264   1.434       .  S
C1258      C1259   1.397       .  A
C1258      H1263   1.085       .  S
C1259      C1260   1.415       .  A
C1260      N1261   1.437       .  S
N1261      H1265   1.046       .  S
N1261      H1266   1.041       .  S
N1264      H1267   1.042       .  S
N1264      H1268   1.046       .  S
C1269      C1270   1.407       .  A
C1269      C1274   1.406       .  A
C1269      H1276   1.084       .  S
C1270      C1271   1.409       .  A
C1271      C1272   1.410       .  A
C1271      N1278   1.438       .  S
C1272      C1273   1.415       .  A
C1272      H1277   1.082       .  S
C1273      C1274   1.420       .  A
C1274      N1275   1.432       .  S
N1275      H1279   1.045       .  S
N1275      H1280   1.045       .  S
N1278      H1281   1.044       .  S
N1278      H1282   1.046       .  S
C1283      C1284   1.402       .  A
C1283      C1288   1.408       .  A
C1283      H1290   1.084       .  S
C1284      C1285   1.420       .  A
C1285      C1286   1.409       .  A
C1285      N1292   1.438       .  S
C1286      C1287   1.407       .  A
C1286      H1291   1.083       .  S
C1287      C1288   1.420       .  A
C1288      N1289   1.433       .  S
N1289      H1293   1.046       .  S
N1289      H1294   1.046       .  S
N1292      H1295   1.044       .  S
N1292      H1296   1.046       .  S
