geometry optimzed in LAMMPS
_audit_creation_date              2020-11-30 
_audit_creation_method            'lammps2cif' 
_symmetry_space_group_name_H-M    'P1' 
_symmetry_Int_Tables_number       1 
_symmetry_cell_setting            triclinic 
loop_ 
_symmetry_equiv_pos_as_xyz 
  x,y,z 
_cell_length_a                    32.22773716 
_cell_length_b                    48.30148139647936 
_cell_length_c                    47.72558292753362 
_cell_angle_alpha                 90.06251987688222 
_cell_angle_beta                  89.57998503128405 
_cell_angle_gamma                 89.17047185519478 
loop_ 
_atom_site_label 
_atom_site_type_symbol 
_atom_site_fract_x 
_atom_site_fract_y 
_atom_site_fract_z 
_atom_site_charge 
C1          C  0.99677350  0.36160770  0.02609665     0.04700
C2          C  0.45854957  0.35148612  0.01683175    -0.11400
C3          C  0.45751638  0.33209726  0.49474246     0.02200
C4          C  0.49490462  0.32286016  0.48238984    -0.10000
C5          C  0.03318548  0.33227111  0.49208756     0.04700
C6          C  0.03381760  0.35200411  0.01367516    -0.09400
H7          H  0.42989749  0.35885476  0.02644197     0.10300
H8          H  0.49423608  0.30752637  0.46578934     0.07800
H9          H  0.06327155  0.35964546  0.02104462     0.07700
C10         C  0.00257637  0.09974358  0.01757701     0.04700
C11         C  0.46406171  0.10729841  0.00591563    -0.11400
C12         C  0.46167699  0.12700535  0.48419432     0.02200
C13         C  0.99851722  0.13819516  0.47347585    -0.10000
C14         C  0.03712365  0.13049779  0.48452681     0.04700
C15         C  0.03894493  0.11132067  0.00668861    -0.09400
H16         H  0.43584913  0.09821607  0.01391615     0.10300
H17         H  0.99710711  0.15410438  0.45749001     0.07800
H18         H  0.06870485  0.10621468  0.01592741     0.07700
Fe19       Fe  0.30378020  0.23364747  0.39882440     1.65800
Fe20       Fe  0.19795385  0.23493966  0.39702116     1.73200
Fe21       Fe  0.24808719  0.23163644  0.46008761     1.54400
O22         O  0.29490620  0.20160125  0.46293967    -0.80100
O23         O  0.17377648  0.26718323  0.42038986    -0.78400
O24         O  0.32743062  0.20159259  0.42184214    -0.82600
O25         O  0.32883036  0.26231650  0.42569225    -0.77500
O26         O  0.20552436  0.20021413  0.46068932    -0.79200
O27         O  0.21938482  0.26293521  0.36792082    -0.82000
C28         C  0.32110023  0.27135249  0.45021017     0.98800
C29         C  0.32264365  0.19212209  0.44631056     1.06200
O30         O  0.24995435  0.23352288  0.41867544    -1.11000
O31         O  0.21628263  0.20281287  0.37160197    -0.73400
O32         O  0.28545629  0.20465744  0.36983912    -0.76900
O33         O  0.29075068  0.26290435  0.46486575    -0.77600
C34         C  0.25118579  0.19463260  0.36215442     0.97700
O35         O  0.28772619  0.26563738  0.37258518    -0.75500
O36         O  0.16821518  0.20678671  0.42219187    -0.80700
C37         C  0.17469714  0.27265903  0.44639052     1.00300
C38         C  0.17464845  0.19484653  0.44540606     1.06200
O39         O  0.20030070  0.26089445  0.46290280    -0.76400
C40         C  0.25415252  0.27280486  0.36089645     1.04500
C41         C  0.25718893  0.35206496  0.27010209     0.04700
C42         C  0.29400692  0.36210101  0.25795515    -0.11400
C43         C  0.29257736  0.38334858  0.23788712     0.02200
C44         C  0.25392398  0.39362726  0.22911862    -0.10000
C45         C  0.21710026  0.38341516  0.24050392     0.03500
C46         C  0.21879972  0.36320040  0.26141943    -0.09400
H47         H  0.32379733  0.35346808  0.26403701     0.10300
H48         H  0.25239307  0.41026565  0.21387560     0.07800
H49         H  0.19019084  0.35631729  0.27092926     0.07700
C50         C  0.25429691  0.11136892  0.27608050     0.04700
C51         C  0.21737645  0.10022960  0.26572823    -0.11400
C52         C  0.21862298  0.08065409  0.24403226     0.02200
C53         C  0.25712999  0.07178808  0.23326412    -0.10000
C54         C  0.29410744  0.08289874  0.24328500     0.04700
C55         C  0.29252742  0.10277829  0.26458427    -0.09400
H56         H  0.18770827  0.10689259  0.27442681     0.10300
H57         H  0.25833235  0.05587962  0.21721730     0.07800
H58         H  0.32101740  0.11185863  0.27190122     0.07700
Fe59       Fe  0.45406042  0.48625291  0.14728375     1.65800
Fe60       Fe  0.06005142  0.48336817  0.14774636     1.73200
Fe61       Fe  0.00539889  0.48410904  0.20970506     1.54400
O62         O  0.46456652  0.01715344  0.21239115    -0.80100
O63         O  0.08557925  0.45394123  0.17388985    -0.78400
O64         O  0.42815739  0.01588954  0.17305551    -0.82600
O65         O  0.42712611  0.45549111  0.17050234    -0.77500
O66         O  0.05357925  0.01161176  0.21321390    -0.79200
O67         O  0.04164399  0.45192321  0.12142287    -0.82000
C68         C  0.42972772  0.44729388  0.19564130     0.98800
C69         C  0.43491754  0.02566663  0.19721278     1.06200
O70         O  0.00655053  0.48453411  0.16825306    -1.11000
O71         O  0.04248748  0.01284988  0.11869897    -0.73400
O72         O  0.47380096  0.01758216  0.12151818    -0.76900
O73         O  0.45705228  0.45633896  0.21221965    -0.77600
C74         C  0.00862869  0.02415155  0.11117697     0.97700
O75         O  0.47265285  0.45631947  0.11896830    -0.75500
O76         O  0.08496503  0.01452236  0.17169433    -0.80700
C77         C  0.07755276  0.44367985  0.19774365     1.00300
C78         C  0.08130418  0.02152407  0.19725970     1.06200
O79         O  0.04645517  0.45122190  0.21242741    -0.76400
C80         C  0.00680195  0.44503616  0.11160145     1.04500
C81         C  0.40055154  0.04957070  0.23807782     0.25200
C82         C  0.40464977  0.04603787  0.20883517    -0.22900
C83         C  0.37508452  0.05866836  0.19116217     0.20100
C84         C  0.34017147  0.07197681  0.20249230     0.25100
C85         C  0.33423893  0.07313829  0.23162878    -0.22900
C86         C  0.36548517  0.06289614  0.24935732     0.20000
F87         F  0.36057023  0.06377521  0.27763371    -0.12800
F88         F  0.42863957  0.03825773  0.25595952    -0.15200
F89         F  0.31125540  0.08285303  0.18493548    -0.15200
F90         F  0.37878702  0.05702527  0.16284030    -0.12800
C91         C  0.15067368  0.05670551  0.25011278     0.25200
C92         C  0.18010268  0.06904897  0.23246475    -0.22900
C93         C  0.17399785  0.06862607  0.20335283     0.20100
C94         C  0.14050114  0.05461312  0.19191285     0.25100
C95         C  0.11227558  0.04061310  0.20940519    -0.22900
C96         C  0.11701677  0.04270296  0.23875826     0.20000
F97         F  0.09056494  0.02987978  0.25663105    -0.12800
F98         F  0.15591027  0.05663058  0.27832348    -0.15200
F99         F  0.13653414  0.05418367  0.16361327    -0.15200
F100        F  0.20111792  0.08137589  0.18587445    -0.12800
C101        C  0.36922053  0.41580846  0.18771621     0.25200
C102        C  0.39820667  0.42748080  0.20621503    -0.22900
C103        C  0.39415961  0.42190483  0.23514590     0.20100
C104        C  0.36093501  0.40637420  0.24531740     0.25100
C105        C  0.33102364  0.39606646  0.22688632    -0.22900
C106        C  0.33609238  0.40037184  0.19796672     0.20000
F107        F  0.30830893  0.39007263  0.17955381    -0.12800
F108        F  0.37197927  0.41991275  0.15962327    -0.15200
F109        F  0.35658065  0.40296548  0.27342051    -0.15200
F110        F  0.42102513  0.43261387  0.25392048    -0.12800
C111        C  0.15075630  0.40959094  0.24896690     0.25200
C112        C  0.17702152  0.39464450  0.23068432    -0.22900
C113        C  0.16688554  0.39269848  0.20221188     0.20100
C114        C  0.13251308  0.40708169  0.19171887     0.25100
C115        C  0.10769921  0.42367271  0.20959571    -0.22900
C116        C  0.11630318  0.42404402  0.23851891     0.20000
F117        F  0.09361647  0.44028185  0.25632617    -0.12800
F118        F  0.16022991  0.41190864  0.27654204    -0.15200
F119        F  0.12442933  0.40562859  0.16387415    -0.15200
F120        F  0.19125596  0.37759780  0.18439834    -0.12800
C121        C  0.27871155  0.15011188  0.34277111     0.25200
C122        C  0.25172581  0.17303874  0.34063480    -0.22900
C123        C  0.22554477  0.17563249  0.31739204     0.20100
C124        C  0.22651283  0.15562208  0.29633738     0.25100
C125        C  0.25309812  0.13240896  0.29852311    -0.22900
C126        C  0.27913053  0.12975786  0.32197793     0.20000
F127        F  0.30443192  0.10724453  0.32499440    -0.12800
F128        F  0.30387706  0.14713226  0.36530432    -0.15200
F129        F  0.20253332  0.15943727  0.27334578    -0.15200
F130        F  0.20017025  0.19814082  0.31457375    -0.12800
C131        C  0.28600364  0.31340684  0.33665895     0.25200
C132        C  0.25572384  0.29276025  0.33749724    -0.22900
C133        C  0.22792651  0.29048733  0.31504417     0.20100
C134        C  0.22952377  0.30903634  0.29265904     0.25100
C135        C  0.25837635  0.33068285  0.29249079    -0.22900
C136        C  0.28700628  0.33239396  0.31458852     0.20000
F137        F  0.31501849  0.35308360  0.31551862    -0.12800
F138        F  0.31394312  0.31577582  0.35765269    -0.15200
F139        F  0.20318024  0.30548763  0.27090207    -0.15200
F140        F  0.19992125  0.26974967  0.31429484    -0.12800
C141        C  0.10013974  0.15840535  0.49380884     0.25200
C142        C  0.07516055  0.14428116  0.47465894    -0.22900
C143        C  0.08546309  0.14476203  0.44600780     0.20100
C144        C  0.11926583  0.16007591  0.43653363     0.25100
C145        C  0.14335612  0.17512466  0.45560148    -0.22900
C146        C  0.13401153  0.17359951  0.48440574     0.20000
F147        F  0.15581206  0.18838395  0.50335557    -0.12800
F148        F  0.09019854  0.15892305  0.52150709    -0.15200
F149        F  0.12806336  0.16052624  0.40866387    -0.15200
F150        F  0.06246428  0.13065357  0.42717731    -0.12800
C151        C  0.39096439  0.14795295  0.49359871     0.25200
C152        C  0.42109251  0.13812544  0.47434458    -0.22900
C153        C  0.41440454  0.14220375  0.44559433     0.20100
C154        C  0.38068440  0.15809767  0.43639416     0.25100
C155        C  0.35257743  0.17033637  0.45579144    -0.22900
C156        C  0.35691086  0.16378622  0.48441221     0.20000
F157        F  0.32994638  0.17407995  0.00402477    -0.12800
F158        F  0.39623767  0.14414817  0.02170678    -0.15200
F159        F  0.37685187  0.16245426  0.40841397    -0.15200
F160        F  0.44161985  0.13172241  0.42632945    -0.12800
C161        C  0.47775152  0.08451860  0.06500976     0.25200
C162        C  0.00494645  0.08087825  0.04203607    -0.22900
C163        C  0.03520767  0.05957677  0.04299132     0.20100
C164        C  0.03769733  0.04201945  0.06615726     0.25100
C165        C  0.00934943  0.04494821  0.08855208    -0.22900
C166        C  0.47965153  0.06655506  0.08790207     0.20000
F167        F  0.45272786  0.07050675  0.10961022    -0.12800
F168        F  0.44977127  0.10580693  0.06559404    -0.15200
F169        F  0.06660669  0.02127826  0.06599517    -0.15200
F170        F  0.06151230  0.05504787  0.02104720    -0.12800
C171        C  0.07978114  0.32013508  0.45149105     0.25200
C172        C  0.07235725  0.32047090  0.48050961    -0.22900
C173        C  0.10127168  0.30774631  0.49839694     0.20100
C174        C  0.13594784  0.29366810  0.48743688     0.25100
C175        C  0.14252358  0.29196043  0.45819059    -0.22900
C176        C  0.11451785  0.30615151  0.44040370     0.20000
F177        F  0.11973245  0.30578582  0.41214407    -0.12800
F178        F  0.05294169  0.33290336  0.93371106    -0.15200
F179        F  0.16159666  0.28035875  0.50558631    -0.15200
F180        F  0.09452983  0.30736199  0.52651547    -0.12800
C181        C  0.40789236  0.32292139  0.45595468     0.25200
C182        C  0.41785559  0.32091985  0.48449740    -0.22900
C183        C  0.39218303  0.30556613  0.50239692     0.20100
C184        C  0.35873531  0.29085719  0.49156547     0.25100
C185        C  0.35047790  0.29126150  0.46258130    -0.22900
C186        C  0.37450926  0.30830207  0.44509223     0.20000
F187        F  0.36656198  0.31011429  0.41724289    -0.12800
F188        F  0.43148454  0.33834179  0.43838761    -0.15200
F189        F  0.33663229  0.27449332  0.50912933    -0.15200
F190        F  0.40141522  0.30306061  0.53000056    -0.12800
C191        C  0.49166175  0.39673068  0.09701141     0.25200
C192        C  0.00550865  0.42333850  0.09017799    -0.22900
C193        C  0.01541838  0.42973662  0.06229200     0.20100
C194        C  0.01205709  0.40961129  0.04141953     0.25100
C195        C  0.99852521  0.38290866  0.04818017    -0.22900
C196        C  0.48826781  0.37654827  0.07609109     0.20000
F197        F  0.47580754  0.35071734  0.08309243    -0.12800
F198        F  0.48183035  0.39034678  0.12393225    -0.15200
F199        F  0.02140146  0.41623272  0.01448168    -0.15200
F200        F  0.02744144  0.45566152  0.05524092    -0.12800
C201        C  0.99677369  0.36114727  0.52637643     0.04700
C202        C  0.45859441  0.35103252  0.51708590    -0.11400
C203        C  0.45741430  0.33243279  0.99458542     0.02200
C204        C  0.49478160  0.32309735  0.98227793    -0.10000
C205        C  0.03309589  0.33248457  0.99196898     0.04700
C206        C  0.03384642  0.35166584  0.51390838    -0.09400
H207        H  0.42992211  0.35836018  0.52670067     0.10300
H208        H  0.49407352  0.30767363  0.96576425     0.07800
H209        H  0.06326799  0.35934805  0.52129248     0.07700
C210        C  0.00259013  0.09990754  0.51754140     0.04700
C211        C  0.46404673  0.10738284  0.50584556    -0.11400
C212        C  0.46175829  0.12695349  0.98429853     0.02200
C213        C  0.99864201  0.13808336  0.97356904    -0.10000
C214        C  0.03722564  0.13028664  0.98459611     0.04700
C215        C  0.03891503  0.11156011  0.50665244    -0.09400
H216        H  0.43586314  0.09825765  0.51384021     0.10300
H217        H  0.99729170  0.15401449  0.95760382     0.07800
H218        H  0.06869138  0.10652372  0.51590257     0.07700
Fe219      Fe  0.30371419  0.23352318  0.89898667     1.65800
Fe220      Fe  0.19790039  0.23473933  0.89721249     1.73200
Fe221      Fe  0.24808535  0.23157573  0.96029969     1.54400
O222        O  0.29494329  0.20156274  0.96315977    -0.80100
O223        O  0.17356331  0.26688711  0.92063678    -0.78400
O224        O  0.32738069  0.20150617  0.92202966    -0.82600
O225        O  0.32876960  0.26223690  0.92583457    -0.77500
O226        O  0.20555716  0.20012592  0.96094915    -0.79200
O227        O  0.21921836  0.26285692  0.86817402    -0.82000
C228        C  0.32108118  0.27130545  0.95035009     0.98800
C229        C  0.32264837  0.19206765  0.94651394     1.06200
O230        O  0.24990950  0.23339719  0.91886606    -1.11000
O231        O  0.21627641  0.20268870  0.87168837    -0.73400
O232        O  0.28544497  0.20447217  0.87000758    -0.76900
O233        O  0.29075036  0.26287001  0.96503625    -0.77600
C234        C  0.25117724  0.19448134  0.86226516     0.97700
O235        O  0.28759227  0.26548888  0.87272306    -0.75500
O236        O  0.16837223  0.20646428  0.92235331    -0.80700
C237        C  0.17454367  0.27247289  0.94661052     1.00300
C238        C  0.17480159  0.19460321  0.94561146     1.06200
O239        O  0.20025122  0.26082297  0.96313355    -0.76400
C240        C  0.25398393  0.27271501  0.86110819     1.04500
C241        C  0.25718521  0.35194080  0.77020417     0.04700
C242        C  0.29404768  0.36191370  0.75804135    -0.11400
C243        C  0.29268720  0.38306759  0.73785761     0.02200
C244        C  0.25405436  0.39331511  0.72900462    -0.10000
C245        C  0.21718718  0.38318357  0.74040652     0.03500
C246        C  0.21882883  0.36306902  0.76142972    -0.09400
H247        H  0.32381653  0.35329470  0.76418540     0.10300
H248        H  0.25257265  0.40989139  0.71369188     0.07800
H249        H  0.19019024  0.35625777  0.77095305     0.07700
C250        C  0.25416295  0.11131635  0.77601728     0.04700
C251        C  0.21721735  0.10030161  0.76555312    -0.11400
C252        C  0.21844690  0.08074609  0.74382909     0.02200
C253        C  0.25694973  0.07182185  0.73310396    -0.10000
C254        C  0.29395707  0.08280253  0.74322816     0.04700
C255        C  0.29240158  0.10262257  0.76459639    -0.09400
H256        H  0.18754900  0.10702373  0.77420759     0.10300
H257        H  0.25812462  0.05594211  0.71702710     0.07800
H258        H  0.32091421  0.11158693  0.77202042     0.07700
Fe259      Fe  0.45399566  0.48614180  0.64718366     1.65800
Fe260      Fe  0.05999274  0.48322169  0.64757332     1.73200
Fe261      Fe  0.00542424  0.48393687  0.70956411     1.54400
O262        O  0.46444880  0.01693385  0.71232568    -0.80100
O263        O  0.08563318  0.45381499  0.67370619    -0.78400
O264        O  0.42811282  0.01578929  0.67295483    -0.82600
O265        O  0.42718512  0.45523861  0.67032153    -0.77500
O266        O  0.05356716  0.01149856  0.71301650    -0.79200
O267        O  0.04149946  0.45172559  0.62134548    -0.82000
C268        C  0.42972938  0.44710567  0.69549167     0.98800
C269        C  0.43481292  0.02548624  0.69715211     1.06200
O270        O  0.00651087  0.48439891  0.66811485    -1.11000
O271        O  0.04238394  0.01266177  0.61847888    -0.73400
O272        O  0.47373386  0.01749290  0.62138338    -0.76900
O273        O  0.45697215  0.45623911  0.71208688    -0.77600
C274        C  0.00854795  0.02403722  0.61100967     0.97700
O275        O  0.47262336  0.45633860  0.61874332    -0.75500
O276        O  0.08492817  0.01441637  0.67147935    -0.80700
C277        C  0.07766572  0.44354767  0.69756530     1.00300
C278        C  0.08127638  0.02142229  0.69704865     1.06200
O279        O  0.04657613  0.45108204  0.71226218    -0.76400
C280        C  0.00663484  0.44485387  0.61154852     1.04500
C281        C  0.40028059  0.04923469  0.73806109     0.25200
C282        C  0.40449014  0.04581191  0.70881135    -0.22900
C283        C  0.37499727  0.05852370  0.69113985     0.20100
C284        C  0.34009390  0.07185608  0.70246321     0.25100
C285        C  0.33408093  0.07296204  0.73159769    -0.22900
C286        C  0.36522407  0.06258827  0.74933477     0.20000
F287        F  0.36021607  0.06337787  0.77760609    -0.12800
F288        F  0.42825322  0.03779686  0.75594507    -0.15200
F289        F  0.31127039  0.08282367  0.68489387    -0.15200
F290        F  0.37876797  0.05695240  0.66281740    -0.12800
C291        C  0.15062462  0.05665267  0.74989705     0.25200
C292        C  0.17992660  0.06913074  0.73225484    -0.22900
C293        C  0.17377381  0.06873704  0.70314467     0.20100
C294        C  0.14033552  0.05464884  0.69170260     0.25100
C295        C  0.11222465  0.04054083  0.70919172    -0.22900
C296        C  0.11703917  0.04257163  0.73854365     0.20000
F297        F  0.09074560  0.02960495  0.75641456    -0.12800
F298        F  0.15594478  0.05651107  0.77809960    -0.15200
F299        F  0.13631223  0.05425485  0.66340617    -0.15200
F300        F  0.20080475  0.08157608  0.68567174    -0.12800
C301        C  0.36930362  0.41550911  0.68761618     0.25200
C302        C  0.39825370  0.42725563  0.70609137    -0.22900
C303        C  0.39423621  0.42169462  0.73502997     0.20100
C304        C  0.36106193  0.40612700  0.74523136     0.25100
C305        C  0.33116482  0.39575464  0.72682561    -0.22900
C306        C  0.33623429  0.40002306  0.69789485     0.20000
F307        F  0.30849510  0.38964787  0.67949588    -0.12800
F308        F  0.37203441  0.41959046  0.65951885    -0.15200
F309        F  0.35673507  0.40275364  0.77334036    -0.15200
F310        F  0.42108282  0.43245349  0.75378711    -0.12800
C311        C  0.15075955  0.40931401  0.74880924     0.25200
C312        C  0.17712980  0.39444069  0.73053074    -0.22900
C313        C  0.16711089  0.39259974  0.70202707     0.20100
C314        C  0.13276942  0.40701501  0.69151556     0.25100
C315        C  0.10785236  0.42353439  0.70940120    -0.22900
C316        C  0.11633776  0.42379516  0.73834372     0.20000
F317        F  0.09354805  0.43994303  0.75617391    -0.12800
F318        F  0.16009523  0.41153446  0.77641466    -0.15200
F319        F  0.12480257  0.40564563  0.66365036    -0.15200
F320        F  0.19154967  0.37755680  0.68420545    -0.12800
C321        C  0.27831044  0.14980230  0.84294131     0.25200
C322        C  0.25169958  0.17291334  0.84069457    -0.22900
C323        C  0.22583496  0.17570053  0.81730737     0.20100
C324        C  0.22675686  0.15570830  0.79622271     0.25100
C325        C  0.25298781  0.13232759  0.79850558    -0.22900
C326        C  0.27869770  0.12948007  0.82210194     0.20000
F327        F  0.30364252  0.10680453  0.82520656    -0.12800
F328        F  0.30312149  0.14661358  0.86562574    -0.15200
F329        F  0.20308747  0.15969371  0.77311257    -0.15200
F330        F  0.20081256  0.19836930  0.81439188    -0.12800
C331        C  0.28590214  0.31329702  0.83683763     0.25200
C332        C  0.25552480  0.29271189  0.83772933    -0.22900
C333        C  0.22764472  0.29050502  0.81531768     0.20100
C334        C  0.22929649  0.30902594  0.79290577     0.25100
C335        C  0.25827273  0.33060495  0.79266678    -0.22900
C336        C  0.28695025  0.33226994  0.81474579     0.20000
F337        F  0.31508240  0.35288838  0.81562909    -0.12800
F338        F  0.31392230  0.31560701  0.85779005    -0.15200
F339        F  0.20290189  0.30549099  0.77117592    -0.15200
F340        F  0.19952026  0.26983781  0.81461895    -0.12800
C341        C  0.10033565  0.15806340  0.99395688     0.25200
C342        C  0.07533182  0.14400384  0.97477215    -0.22900
C343        C  0.08571311  0.14445729  0.94613757     0.20100
C344        C  0.11957024  0.15973758  0.93670114     0.25100
C345        C  0.14361214  0.17479811  0.95579080    -0.22900
C346        C  0.13425254  0.17323354  0.98459181     0.20000
F347        F  0.15607056  0.18796220  0.00357686    -0.12800
F348        F  0.09037167  0.15854922  0.02165255    -0.15200
F349        F  0.12845033  0.16016027  0.90884275    -0.15200
F350        F  0.06273067  0.13036289  0.92728715    -0.12800
C351        C  0.39107676  0.14793264  0.99375914     0.25200
C352        C  0.42119785  0.13813220  0.97448304    -0.22900
C353        C  0.41448497  0.14222527  0.94574167     0.20100
C354        C  0.38073221  0.15809563  0.93656583     0.25100
C355        C  0.35261997  0.17030311  0.95598111    -0.22900
C356        C  0.35698907  0.16374592  0.98459670     0.20000
F357        F  0.32987881  0.17415849  0.50382605    -0.12800
F358        F  0.39610182  0.14418898  0.52155079    -0.15200
F359        F  0.37686856  0.16245515  0.90858821    -0.15200
F360        F  0.44169033  0.13176475  0.92645945    -0.12800
C361        C  0.47770808  0.08453196  0.56492778     0.25200
C362        C  0.00501237  0.08101036  0.54199615    -0.22900
C363        C  0.03535603  0.05975719  0.54296301     0.20100
C364        C  0.03777666  0.04210932  0.56607397     0.25100
C365        C  0.00929461  0.04490071  0.58841494    -0.22900
C366        C  0.47955538  0.06649020  0.58776751     0.20000
F367        F  0.45253585  0.07035280  0.60943615    -0.12800
F368        F  0.44966423  0.10578258  0.56552850    -0.15200
F369        F  0.06677438  0.02142353  0.56590684    -0.15200
F370        F  0.06180709  0.05535297  0.52107439    -0.12800
C371        C  0.07973541  0.32008374  0.95148260     0.25200
C372        C  0.07223125  0.32052797  0.98048795    -0.22900
C373        C  0.10101304  0.30776715  0.99845061     0.20100
C374        C  0.13565675  0.29357407  0.98757465     0.25100
C375        C  0.14233967  0.29180171  0.95834266    -0.22900
C376        C  0.11443936  0.30599785  0.94048259     0.20000
F377        F  0.11973937  0.30555727  0.91223098    -0.12800
F378        F  0.05287317  0.33294824  0.43379257    -0.15200
F379        F  0.16117015  0.28023196  0.00578574    -0.15200
F380        F  0.09417281  0.30747818  0.02656047    -0.12800
C381        C  0.40762707  0.32311728  0.95591603     0.25200
C382        C  0.41773690  0.32116757  0.98443894    -0.22900
C383        C  0.39227329  0.30571503  0.00238934     0.20100
C384        C  0.35888524  0.29088129  0.99162836     0.25100
C385        C  0.35046139  0.29126676  0.96266407    -0.22900
C386        C  0.37429744  0.30838156  0.94512603     0.20000
F387        F  0.36620503  0.31016235  0.91729488    -0.12800
F388        F  0.43103707  0.33859855  0.93829348    -0.15200
F389        F  0.33701089  0.27442517  0.00923415    -0.15200
F390        F  0.40166737  0.30324205  0.02997047    -0.12800
C391        C  0.49216041  0.39638638  0.59725500     0.25200
C392        C  0.00528440  0.42309305  0.59020805    -0.22900
C393        C  0.01463694  0.42949490  0.56224115     0.20100
C394        C  0.01133805  0.40928247  0.54146199     0.25100
C395        C  0.99842105  0.38249130  0.54839890    -0.22900
C396        C  0.48878686  0.37610922  0.57642557     0.20000
F397        F  0.47691523  0.35019327  0.58359088    -0.12800
F398        F  0.48289505  0.39001000  0.62426835    -0.15200
F399        F  0.02016474  0.41589202  0.51444296    -0.15200
F400        F  0.02609521  0.45549437  0.55503106    -0.12800
C401        C  0.99673570  0.86159254  0.02611157     0.04700
C402        C  0.45852819  0.85147539  0.01686922    -0.11400
C403        C  0.45750446  0.83210241  0.49473810     0.02200
C404        C  0.49489333  0.82285533  0.48239493    -0.10000
C405        C  0.03315983  0.83224445  0.49211782     0.04700
C406        C  0.03377852  0.85196777  0.01370258    -0.09400
H407        H  0.42987850  0.85886333  0.02646790     0.10300
H408        H  0.49422574  0.80751976  0.46579597     0.07800
H409        H  0.06323616  0.85960300  0.02107161     0.07700
C410        C  0.00262220  0.59976872  0.01761867     0.04700
C411        C  0.46408667  0.60733758  0.00595777    -0.11400
C412        C  0.46169953  0.62704900  0.48424419     0.02200
C413        C  0.99855845  0.63822429  0.47351362    -0.10000
C414        C  0.03716494  0.63051339  0.48455515     0.04700
C415        C  0.03899182  0.61133629  0.00671994    -0.09400
H416        H  0.43587256  0.59826519  0.01396775     0.10300
H417        H  0.99715201  0.65413632  0.45753042     0.07800
H418        H  0.06875524  0.60621933  0.01594823     0.07700
Fe419      Fe  0.30377862  0.73365656  0.39881280     1.65800
Fe420      Fe  0.19795696  0.73496290  0.39701486     1.73200
Fe421      Fe  0.24809181  0.73165596  0.46007407     1.54400
O422        O  0.29497358  0.70166635  0.46293899    -0.80100
O423        O  0.17381692  0.76723759  0.42036285    -0.78400
O424        O  0.32739540  0.70156842  0.42180464    -0.82600
O425        O  0.32885991  0.76229000  0.42570722    -0.77500
O426        O  0.20559129  0.70019607  0.46066565    -0.79200
O427        O  0.21941721  0.76292365  0.36788471    -0.82000
C428        C  0.32108719  0.77136722  0.45020423     0.98800
C429        C  0.32266602  0.69214770  0.44629866     1.06200
O430        O  0.24995762  0.73353966  0.41866435    -1.11000
O431        O  0.21625795  0.70280888  0.37161910    -0.73400
O432        O  0.28542608  0.70470320  0.36979821    -0.76900
O433        O  0.29069157  0.76296224  0.46484256    -0.77600
C434        C  0.25115710  0.69465768  0.36213813     0.97700
O435        O  0.28774406  0.76567813  0.37260419    -0.75500
O436        O  0.16819476  0.70684142  0.42221695    -0.80700
C437        C  0.17468016  0.77266641  0.44637544     1.00300
C438        C  0.17467044  0.69486640  0.44540885     1.06200
O439        O  0.20024656  0.76086905  0.46288939    -0.76400
C440        C  0.25418136  0.77281478  0.36088155     1.04500
C441        C  0.25722867  0.85203469  0.27004273     0.04700
C442        C  0.29404799  0.86206690  0.25789360    -0.11400
C443        C  0.29262081  0.88331025  0.23782080     0.02200
C444        C  0.25396968  0.89358898  0.22904989    -0.10000
C445        C  0.21714376  0.88338035  0.24043424     0.03500
C446        C  0.21883987  0.86316840  0.26135417    -0.09400
H447        H  0.32383790  0.85343591  0.26397929     0.10300
H448        H  0.25244245  0.91022708  0.21380637     0.07800
H449        H  0.19022984  0.85628796  0.27086448     0.07700
C450        C  0.25426356  0.61142261  0.27603681     0.04700
C451        C  0.21733623  0.60028470  0.26569312    -0.11400
C452        C  0.21857395  0.58069653  0.24400872     0.02200
C453        C  0.25707437  0.57181835  0.23324292    -0.10000
C454        C  0.29405610  0.58293126  0.24325028     0.04700
C455        C  0.29248886  0.60282138  0.26453998    -0.09400
H456        H  0.18767148  0.60695533  0.27439148     0.10300
H457        H  0.25826778  0.55589963  0.21720623     0.07800
H458        H  0.32098392  0.61189999  0.27185041     0.07700
Fe459      Fe  0.45408812  0.98626083  0.14728291     1.65800
Fe460      Fe  0.06005440  0.98339165  0.14771895     1.73200
Fe461      Fe  0.00542981  0.98410155  0.20969508     1.54400
O462        O  0.46436255  0.51706072  0.21240773    -0.80100
O463        O  0.08557733  0.95391715  0.17381139    -0.78400
O464        O  0.42822307  0.51600290  0.17295144    -0.82600
O465        O  0.42728153  0.95537778  0.17040225    -0.77500
O466        O  0.05360784  0.51157335  0.21322514    -0.79200
O467        O  0.04161292  0.95199447  0.12134521    -0.82000
C468        C  0.42974506  0.94728941  0.19558470     0.98800
C469        C  0.43485204  0.52567976  0.19716754     1.06200
O470        O  0.00655955  0.98454524  0.16824054    -1.11000
O471        O  0.04247827  0.51277856  0.11867360    -0.73400
O472        O  0.47383910  0.51746001  0.12139522    -0.76900
O473        O  0.45693446  0.95644419  0.21220437    -0.77600
C474        C  0.00863642  0.52412978  0.11118772     0.97700
O475        O  0.47275023  0.95645329  0.11884600    -0.75500
O476        O  0.08491253  0.51454438  0.17168331    -0.80700
C477        C  0.07760716  0.94368251  0.19768576     1.00300
C478        C  0.08129279  0.52151648  0.19725930     1.06200
O479        O  0.04655818  0.95125404  0.21240091    -0.76400
C480        C  0.00675677  0.94505825  0.11158172     1.04500
C481        C  0.40048974  0.54959663  0.23803108     0.25200
C482        C  0.40457740  0.54605162  0.20878715    -0.22900
C483        C  0.37499786  0.55867232  0.19111653     0.20100
C484        C  0.34009099  0.57198428  0.20245066     0.25100
C485        C  0.33417713  0.57316147  0.23158811    -0.22900
C486        C  0.36542925  0.56292489  0.24931297     0.20000
F487        F  0.36052713  0.56381336  0.27759015    -0.12800
F488        F  0.42858956  0.53830138  0.25591571    -0.15200
F489        F  0.31116094  0.58284793  0.18489649    -0.15200
F490        F  0.37867254  0.55701440  0.16279413    -0.12800
C491        C  0.15064419  0.55673142  0.25010241     0.25200
C492        C  0.18005468  0.56908589  0.23244949    -0.22900
C493        C  0.17394842  0.56865313  0.20333816     0.20100
C494        C  0.14046698  0.55462169  0.19190298     0.25100
C495        C  0.11225819  0.54061243  0.20940010    -0.22900
C496        C  0.11700251  0.54270909  0.23875294     0.20000
F497        F  0.09056909  0.52987574  0.25663060    -0.12800
F498        F  0.15588827  0.55666383  0.27831249    -0.15200
F499        F  0.13650279  0.55418165  0.16360340    -0.15200
F500        F  0.20105792  0.58140731  0.18585545    -0.12800
C501        C  0.36925183  0.91578823  0.18765477     0.25200
C502        C  0.39822566  0.92747186  0.20615605    -0.22900
C503        C  0.39417809  0.92189175  0.23508686     0.20100
C504        C  0.36096555  0.90634856  0.24525527     0.25100
C505        C  0.33106553  0.89603138  0.22682215    -0.22900
C506        C  0.33613565  0.90033878  0.19790300     0.20000
F507        F  0.30836160  0.89003140  0.17948824    -0.12800
F508        F  0.37200217  0.91989810  0.15956240    -0.15200
F509        F  0.35661159  0.90293568  0.27335787    -0.15200
F510        F  0.42103971  0.93259937  0.25386482    -0.12800
C511        C  0.15079931  0.90955593  0.24889904     0.25200
C512        C  0.17706951  0.89461829  0.23061286    -0.22900
C513        C  0.16695076  0.89269822  0.20213524     0.20100
C514        C  0.13258805  0.90709388  0.19164356     0.25100
C515        C  0.10776459  0.92367270  0.20952682    -0.22900
C516        C  0.11635654  0.92402136  0.23845313     0.20000
F517        F  0.09366572  0.94024642  0.25626993    -0.12800
F518        F  0.16025857  0.91185392  0.27647826    -0.15200
F519        F  0.12452358  0.90566226  0.16379504    -0.15200
F520        F  0.19132937  0.87761041  0.18431563    -0.12800
C521        C  0.27867511  0.65014341  0.34274046     0.25200
C522        C  0.25169776  0.67307464  0.34060822    -0.22900
C523        C  0.22553764  0.67568696  0.31735695     0.20100
C524        C  0.22650932  0.65568481  0.29629332     0.25100
C525        C  0.25307781  0.63246312  0.29847898    -0.22900
C526        C  0.27909802  0.62979839  0.32193840     0.20000
F527        F  0.30438892  0.60727941  0.32495151    -0.12800
F528        F  0.30382876  0.64715139  0.36527821    -0.15200
F529        F  0.20254836  0.65951403  0.27329513    -0.15200
F530        F  0.20018120  0.69820450  0.31454079    -0.12800
C531        C  0.28604010  0.81340540  0.33662038     0.25200
C532        C  0.25576103  0.79275787  0.33746848    -0.22900
C533        C  0.22797027  0.79047276  0.31501201     0.20100
C534        C  0.22956697  0.80901317  0.29261876     0.25100
C535        C  0.25841602  0.83066143  0.29244185    -0.22900
C536        C  0.28704441  0.83238218  0.31453995     0.20000
F537        F  0.31505705  0.85307202  0.31546067    -0.12800
F538        F  0.31397867  0.81578573  0.35761317    -0.15200
F539        F  0.20322593  0.80545424  0.27086228    -0.15200
F540        F  0.19997020  0.76973187  0.31426737    -0.12800
C541        C  0.10018468  0.65842185  0.49382627     0.25200
C542        C  0.07520348  0.64429243  0.47468165    -0.22900
C543        C  0.08549434  0.64477507  0.44602822     0.20100
C544        C  0.11928819  0.66009430  0.43654733     0.25100
C545        C  0.14338138  0.67514579  0.45561027    -0.22900
C546        C  0.13404714  0.67362218  0.48441586     0.20000
F547        F  0.15584700  0.68841567  0.50335875    -0.12800
F548        F  0.09025160  0.65893980  0.52152576    -0.15200
F549        F  0.12807580  0.66054701  0.40867623    -0.15200
F550        F  0.06249059  0.63066477  0.42720199    -0.12800
C551        C  0.39098449  0.64800857  0.49362499     0.25200
C552        C  0.42112225  0.63817282  0.47438253    -0.22900
C553        C  0.41445098  0.64224266  0.44562889     0.20100
C554        C  0.38073713  0.65813375  0.43641321     0.25100
C555        C  0.35261394  0.67037610  0.45579745    -0.22900
C556        C  0.35693515  0.66383794  0.48442313     0.20000
F557        F  0.32998198  0.67414515  0.00402755    -0.12800
F558        F  0.39626541  0.64421780  0.02173124    -0.15200
F559        F  0.37692761  0.66248255  0.40843037    -0.15200
F560        F  0.44167572  0.63175327  0.42637448    -0.12800
C561        C  0.47781795  0.58453502  0.06504576     0.25200
C562        C  0.00499561  0.58089435  0.04207145    -0.22900
C563        C  0.03522101  0.55956892  0.04300316     0.20100
C564        C  0.03769703  0.54199434  0.06615789     0.25100
C565        C  0.00937399  0.54493375  0.08856696    -0.22900
C566        C  0.47972692  0.56656153  0.08793032     0.20000
F567        F  0.45282796  0.57050770  0.10965322    -0.12800
F568        F  0.44985589  0.60583339  0.06565052    -0.15200
F569        F  0.06656931  0.52123019  0.06597215    -0.15200
F570        F  0.06150126  0.55503459  0.02104682    -0.12800
C571        C  0.07974472  0.82012699  0.45151130     0.25200
C572        C  0.07232950  0.82044979  0.48053111    -0.22900
C573        C  0.10124601  0.80771452  0.49840816     0.20100
C574        C  0.13591956  0.79364198  0.48743645     0.25100
C575        C  0.14249136  0.79195093  0.45818774    -0.22900
C576        C  0.11447789  0.80614828  0.44041177     0.20000
F577        F  0.11968042  0.80579360  0.41215122    -0.12800
F578        F  0.05287799  0.83288188  0.93374794    -0.15200
F579        F  0.16157409  0.78032587  0.50557735    -0.15200
F580        F  0.09451011  0.80731616  0.52652710    -0.12800
C581        C  0.40789774  0.82291867  0.45594292     0.25200
C582        C  0.41784449  0.82092867  0.48448924    -0.22900
C583        C  0.39215844  0.80558606  0.50238997     0.20100
C584        C  0.35871018  0.79087879  0.49155763     0.25100
C585        C  0.35046605  0.79127466  0.46257226    -0.22900
C586        C  0.37451402  0.80830091  0.44507997     0.20000
F587        F  0.36658193  0.81009923  0.41722763    -0.12800
F588        F  0.43150759  0.83832453  0.43837341    -0.15200
F589        F  0.33659569  0.77452174  0.50912146    -0.15200
F590        F  0.40137909  0.80308804  0.52999610    -0.12800
C591        C  0.49189208  0.89671313  0.09705411     0.25200
C592        C  0.00545608  0.92335493  0.09016384    -0.22900
C593        C  0.01540902  0.92973380  0.06227973     0.20100
C594        C  0.01205285  0.90959882  0.04141565     0.25100
C595        C  0.99848932  0.88290514  0.04818380    -0.22900
C596        C  0.48846313  0.87651885  0.07614816     0.20000
F597        F  0.47615776  0.85066380  0.08318758    -0.12800
F598        F  0.48224551  0.89031614  0.12400172    -0.15200
F599        F  0.02142847  0.91620325  0.01447828    -0.15200
F600        F  0.02746069  0.95565058  0.05522082    -0.12800
C601        C  0.99674315  0.86113420  0.52639447     0.04700
C602        C  0.45858067  0.85104340  0.51707636    -0.11400
C603        C  0.45738583  0.83241286  0.99463112     0.02200
C604        C  0.49475024  0.82305618  0.98233665    -0.10000
C605        C  0.03304790  0.83243920  0.99200427     0.04700
C606        C  0.03381914  0.85164515  0.51393395    -0.09400
H607        H  0.42990711  0.85838032  0.52668237     0.10300
H608        H  0.49403525  0.80762920  0.96582614     0.07800
H609        H  0.06324021  0.85932902  0.52131679     0.07700
C610        C  0.00262434  0.59992285  0.51756792     0.04700
C611        C  0.46405948  0.60742698  0.50589727    -0.11400
C612        C  0.46178387  0.62698883  0.98433547     0.02200
C613        C  0.99868253  0.63811167  0.97361344    -0.10000
C614        C  0.03726837  0.63030585  0.98462991     0.04700
C615        C  0.03895412  0.61156728  0.50667466    -0.09400
H616        H  0.43587067  0.59831348  0.51389774     0.10300
H617        H  0.99733206  0.65404206  0.95764743     0.07800
H618        H  0.06873153  0.60651749  0.51591626     0.07700
Fe619      Fe  0.30371686  0.73353570  0.89898111     1.65800
Fe620      Fe  0.19790735  0.73476012  0.89720525     1.73200
Fe621      Fe  0.24808547  0.73158530  0.96028740     1.54400
O622        O  0.29501314  0.70162283  0.96315877    -0.80100
O623        O  0.17360154  0.76693535  0.92061163    -0.78400
O624        O  0.32735164  0.70148212  0.92199357    -0.82600
O625        O  0.32879415  0.76221179  0.92586403    -0.77500
O626        O  0.20563095  0.70009307  0.96091680    -0.79200
O627        O  0.21925560  0.76284672  0.86814120    -0.82000
C628        C  0.32105468  0.77131912  0.95035879     0.98800
C629        C  0.32267452  0.69209020  0.94650182     1.06200
O630        O  0.24991393  0.73341123  0.91885695    -1.11000
O631        O  0.21626292  0.70268519  0.87170292    -0.73400
O632        O  0.28542619  0.70452333  0.86996693    -0.76900
O633        O  0.29067506  0.76292294  0.96502258    -0.77600
C634        C  0.25116194  0.69450899  0.86224793     0.97700
O635        O  0.28761378  0.76553655  0.87275202    -0.75500
O636        O  0.16835305  0.70651362  0.92237286    -0.80700
C637        C  0.17451369  0.77246498  0.94659991     1.00300
C638        C  0.17482725  0.69461344  0.94560630     1.06200
O639        O  0.20018188  0.76077972  0.96312470    -0.76400
C640        C  0.25401691  0.77273025  0.86110115     1.04500
C641        C  0.25722305  0.85192842  0.77016610     0.04700
C642        C  0.29408642  0.86189887  0.75800342    -0.11400
C643        C  0.29272955  0.88305175  0.73781888     0.02200
C644        C  0.25409887  0.89330196  0.72896505    -0.10000
C645        C  0.21722854  0.88317293  0.74036525     0.03500
C646        C  0.21886687  0.86305604  0.76138804    -0.09400
H647        H  0.32385419  0.85328027  0.76415073     0.10300
H648        H  0.25262171  0.90987964  0.71365349     0.07800
H649        H  0.19022773  0.85624383  0.77090964     0.07700
C650        C  0.25414046  0.61134367  0.77599882     0.04700
C651        C  0.21718746  0.60033399  0.76553970    -0.11400
C652        C  0.21840754  0.58076303  0.74382955     0.02200
C653        C  0.25690493  0.57181924  0.73311329    -0.10000
C654        C  0.29391828  0.58279616  0.74322966     0.04700
C655        C  0.29237487  0.60263027  0.76458514    -0.09400
H656        H  0.18752209  0.60707001  0.77418823     0.10300
H657        H  0.25807019  0.55592876  0.71704697     0.07800
H658        H  0.32089331  0.61159003  0.77200470     0.07700
Fe659      Fe  0.45401192  0.98616087  0.64717446     1.65800
Fe660      Fe  0.05999166  0.98323878  0.64755504     1.73200
Fe661      Fe  0.00544426  0.98394360  0.70955838     1.54400
O662        O  0.46445241  0.51695846  0.71232181    -0.80100
O663        O  0.08562733  0.95380141  0.67365536    -0.78400
O664        O  0.42806477  0.51575054  0.67297464    -0.82600
O665        O  0.42718139  0.95527555  0.67032398    -0.77500
O666        O  0.05358739  0.51146053  0.71302728    -0.79200
O667        O  0.04146749  0.95177339  0.62129720    -0.82000
C668        C  0.42976682  0.94710482  0.69547911     0.98800
C669        C  0.43478326  0.52547569  0.69715812     1.06200
O670        O  0.00651506  0.98441557  0.66810760    -1.11000
O671        O  0.04237713  0.51261322  0.61846290    -0.73400
O672        O  0.47371545  0.51749148  0.62140968    -0.76900
O673        O  0.45704315  0.95620725  0.71206675    -0.77600
C674        C  0.00854869  0.52401274  0.61101226     0.97700
O675        O  0.47261672  0.95634246  0.61874580    -0.75500
O676        O  0.08488903  0.51443037  0.67147509    -0.80700
C677        C  0.07770310  0.94355807  0.69753161     1.00300
C678        C  0.08126570  0.52141144  0.69705293     1.06200
O679        O  0.04664857  0.95111625  0.71225018    -0.76400
C680        C  0.00659164  0.94487641  0.61153609     1.04500
C681        C  0.40023697  0.54921862  0.73806384     0.25200
C682        C  0.40444636  0.54579253  0.70881458    -0.22900
C683        C  0.37494275  0.55849035  0.69114172     0.20100
C684        C  0.34003874  0.57182265  0.70246385     0.25100
C685        C  0.33403453  0.57294205  0.73159886    -0.22900
C686        C  0.36517952  0.56257218  0.74933652     0.20000
F687        F  0.36017333  0.56336703  0.77760783    -0.12800
F688        F  0.42821119  0.53778358  0.75594845    -0.15200
F689        F  0.31120772  0.58277891  0.68489302    -0.15200
F690        F  0.37870640  0.55690728  0.66281947    -0.12800
C691        C  0.15058798  0.55666907  0.74990116     0.25200
C692        C  0.17988536  0.56914966  0.73225810    -0.22900
C693        C  0.17373824  0.56874808  0.70314773     0.20100
C694        C  0.14031094  0.55464892  0.69170592     0.25100
C695        C  0.11220593  0.54053650  0.70919575    -0.22900
C696        C  0.11701365  0.54257567  0.73854815     0.20000
F697        F  0.09072415  0.52960713  0.75642040    -0.12800
F698        F  0.15590486  0.55653579  0.77810405    -0.15200
F699        F  0.13629648  0.55424655  0.66340901    -0.15200
F700        F  0.20076903  0.58158652  0.68567420    -0.12800
C701        C  0.36935800  0.91549858  0.68758983     0.25200
C702        C  0.39829830  0.92724694  0.70607088    -0.22900
C703        C  0.39427390  0.92168304  0.73500791     0.20100
C704        C  0.36109968  0.90611198  0.74520302     0.25100
C705        C  0.33120954  0.89573939  0.72679213    -0.22900
C706        C  0.33628742  0.90000963  0.69786223     0.20000
F707        F  0.30855496  0.88963427  0.67945860    -0.12800
F708        F  0.37210155  0.91958014  0.65949295    -0.15200
F709        F  0.35676388  0.90273726  0.77331120    -0.15200
F710        F  0.42110955  0.93244623  0.75376963    -0.12800
C711        C  0.15080064  0.90930639  0.74876970     0.25200
C712        C  0.17717384  0.89443803  0.73048897    -0.22900
C713        C  0.16716429  0.89261347  0.70198242     0.20100
C714        C  0.13282632  0.90703454  0.69147236     0.25100
C715        C  0.10790145  0.92354558  0.70936180    -0.22900
C716        C  0.11638299  0.92379419  0.73830589     0.20000
F717        F  0.09359112  0.93993432  0.75614199    -0.12800
F718        F  0.16012893  0.91151541  0.77637728    -0.15200
F719        F  0.12487058  0.90567703  0.66360510    -0.15200
F720        F  0.19160871  0.87757969  0.68415650    -0.12800
C721        C  0.27828678  0.64983074  0.84292257     0.25200
C722        C  0.25168920  0.67294761  0.84067086    -0.22900
C723        C  0.22584641  0.67574612  0.81727422     0.20100
C724        C  0.22676871  0.65575389  0.79618830     0.25100
C725        C  0.25297858  0.63236325  0.79847997    -0.22900
C726        C  0.27867452  0.62950929  0.82208248     0.20000
F727        F  0.30360297  0.60682680  0.82519386    -0.12800
F728        F  0.30308273  0.64663525  0.86561361    -0.15200
F729        F  0.20311829  0.65974636  0.77307047    -0.15200
F730        F  0.20084401  0.69842385  0.81435316    -0.12800
C731        C  0.28593072  0.81331173  0.83681894     0.25200
C732        C  0.25556567  0.79271786  0.83771128    -0.22900
C733        C  0.22770304  0.79049452  0.81529032     0.20100
C734        C  0.22935209  0.80901108  0.79287378     0.25100
C735        C  0.25831273  0.83059861  0.79263530    -0.22900
C736        C  0.28697953  0.83227712  0.81471965     0.20000
F737        F  0.31510143  0.85290202  0.81560033    -0.12800
F738        F  0.31393856  0.81563774  0.85777686    -0.15200
F739        F  0.20297030  0.80546418  0.77113892    -0.15200
F740        F  0.19959722  0.76981626  0.81458751    -0.12800
C741        C  0.10038062  0.65808527  0.99397159     0.25200
C742        C  0.07537265  0.64401829  0.97479532    -0.22900
C743        C  0.08573883  0.64446905  0.94615773     0.20100
C744        C  0.11958857  0.65975104  0.93671095     0.25100
C745        C  0.14363838  0.67481352  0.95579313    -0.22900
C746        C  0.13429022  0.67325654  0.98459585     0.20000
F747        F  0.15611052  0.68799619  0.00357093    -0.12800
F748        F  0.09042533  0.65857834  0.02166853    -0.15200
F749        F  0.12845570  0.66017320  0.90885074    -0.15200
F750        F  0.06274726  0.63037184  0.92731468    -0.12800
C751        C  0.39110827  0.64798683  0.99378109     0.25200
C752        C  0.42122693  0.63816918  0.97451286    -0.22900
C753        C  0.41451869  0.64224739  0.94576837     0.20100
C754        C  0.38077217  0.65811712  0.93658011     0.25100
C755        C  0.35265745  0.67033750  0.95598535    -0.22900
C756        C  0.35702551  0.66379878  0.98460652     0.20000
F757        F  0.32988877  0.67421258  0.50382677    -0.12800
F758        F  0.39610466  0.64425255  0.52157973    -0.15200
F759        F  0.37691768  0.66246185  0.90859964    -0.15200
F760        F  0.44172295  0.63177143  0.92649389    -0.12800
C761        C  0.47774534  0.58455390  0.56497375     0.25200
C762        C  0.00504146  0.58101352  0.54201479    -0.22900
C763        C  0.03535458  0.55973981  0.54296262     0.20100
C764        C  0.03776343  0.54207816  0.56606486     0.25100
C765        C  0.00930181  0.54487880  0.58841752    -0.22900
C766        C  0.47958364  0.56650055  0.58780507     0.20000
F767        F  0.45259799  0.57037787  0.60949023    -0.12800
F768        F  0.44974091  0.60582704  0.56559619    -0.15200
F769        F  0.06673081  0.52137346  0.56587945    -0.15200
F770        F  0.06178612  0.55533067  0.52106423    -0.12800
C771        C  0.07967484  0.82005103  0.95150918     0.25200
C772        C  0.07217562  0.82047901  0.98051533    -0.22900
C773        C  0.10095433  0.80770225  0.99846782     0.20100
C774        C  0.13559803  0.79351698  0.98758046     0.25100
C775        C  0.14228508  0.79176912  0.95834619    -0.22900
C776        C  0.11437790  0.80597274  0.94049738     0.20000
F777        F  0.11967075  0.80554860  0.91224517    -0.12800
F778        F  0.05283061  0.83294860  0.43382320    -0.15200
F779        F  0.16111355  0.78016431  0.00578258    -0.15200
F780        F  0.09411423  0.80739438  0.02657751    -0.12800
C781        C  0.40763611  0.82309839  0.95594037     0.25200
C782        C  0.41770367  0.82116607  0.98447173    -0.22900
C783        C  0.39219648  0.80574096  0.00241852     0.20100
C784        C  0.35880824  0.79091448  0.99164731     0.25100
C785        C  0.35042938  0.79127994  0.96267691    -0.22900
C786        C  0.37430743  0.80836960  0.94514052     0.20000
F787        F  0.36625826  0.81013000  0.91730212    -0.12800
F788        F  0.43108962  0.83855248  0.93831948    -0.15200
F789        F  0.33689092  0.77448154  0.00925104    -0.15200
F790        F  0.40154892  0.80328420  0.03000765    -0.12800
C791        C  0.49216616  0.89640394  0.59724462     0.25200
C792        C  0.00522873  0.92311004  0.59020089    -0.22900
C793        C  0.01464216  0.92949060  0.56223790     0.20100
C794        C  0.01134865  0.90926968  0.54146618     0.25100
C795        C  0.99838243  0.88249001  0.54840689    -0.22900
C796        C  0.48879123  0.87612183  0.57642054     0.20000
F797        F  0.47693705  0.85020452  0.58359438    -0.12800
F798        F  0.48292236  0.89003024  0.62426195    -0.15200
F799        F  0.02022477  0.91586102  0.51444976    -0.15200
F800        F  0.02614890  0.95547886  0.55502285    -0.12800
C801        C  0.49675773  0.36160632  0.02609443     0.04700
C802        C  0.95856444  0.35149212  0.01683089    -0.11400
C803        C  0.95752743  0.33211426  0.49470896     0.02200
C804        C  0.99491677  0.32287654  0.48235775    -0.10000
C805        C  0.53317351  0.33225933  0.49211404     0.04700
C806        C  0.53380153  0.35200489  0.01367027    -0.09400
H807        H  0.92991276  0.35886392  0.02643964     0.10300
H808        H  0.99424957  0.30754351  0.46575644     0.07800
H809        H  0.56325574  0.35964659  0.02103861     0.07700
C810        C  0.50258730  0.09973985  0.01757587     0.04700
C811        C  0.96404918  0.10730592  0.00592070    -0.11400
C812        C  0.96166504  0.12701739  0.48420791     0.02200
C813        C  0.49853013  0.13817966  0.47345947    -0.10000
C814        C  0.53713517  0.13048693  0.48451616     0.04700
C815        C  0.53895692  0.11131752  0.00668902    -0.09400
H816        H  0.93583649  0.09822323  0.01392057     0.10300
H817        H  0.49712154  0.15408502  0.45746962     0.07800
H818        H  0.56871564  0.10621577  0.01593238     0.07700
Fe819      Fe  0.80377054  0.23365430  0.39881833     1.65800
Fe820      Fe  0.69794358  0.23495348  0.39701947     1.73200
Fe821      Fe  0.74808373  0.23165210  0.46008460     1.54400
O822        O  0.79490294  0.20161713  0.46293864    -0.80100
O823        O  0.67376731  0.26719699  0.42039000    -0.78400
O824        O  0.82742017  0.20160029  0.42183875    -0.82600
O825        O  0.82882549  0.26232424  0.42568195    -0.77500
O826        O  0.70551740  0.20023078  0.46069085    -0.79200
O827        O  0.71937536  0.26295045  0.36791879    -0.82000
C828        C  0.82109832  0.27136526  0.45019828     0.98800
C829        C  0.82263770  0.19213450  0.44630957     1.06200
O830        O  0.74994629  0.23353479  0.41867175    -1.11000
O831        O  0.71626696  0.20282729  0.37159687    -0.73400
O832        O  0.78544121  0.20466356  0.36983624    -0.76900
O833        O  0.79074925  0.26292080  0.46485690    -0.77600
C834        C  0.75116861  0.19464344  0.36214981     0.97700
O835        O  0.78771907  0.26564262  0.37257564    -0.75500
O836        O  0.66820758  0.20679849  0.42219174    -0.80700
C837        C  0.67469075  0.27267244  0.44639069     1.00300
C838        C  0.67464206  0.19486076  0.44540746     1.06200
O839        O  0.70029847  0.26090941  0.46290072    -0.76400
C840        C  0.75414518  0.27281476  0.36088974     1.04500
C841        C  0.75719487  0.35206240  0.27007899     0.04700
C842        C  0.79401161  0.36209707  0.25792703    -0.11400
C843        C  0.79257763  0.38334018  0.23785321     0.02200
C844        C  0.75392361  0.39361407  0.22908369    -0.10000
C845        C  0.71710310  0.38340179  0.24047107     0.03500
C846        C  0.71880510  0.36319555  0.26139443    -0.09400
H847        H  0.82380363  0.35346667  0.26400815     0.10300
H848        H  0.75238922  0.41024989  0.21383775     0.07800
H849        H  0.69019632  0.35631690  0.27090806     0.07700
C850        C  0.75429045  0.11139679  0.27605865     0.04700
C851        C  0.71737197  0.10025709  0.26570304    -0.11400
C852        C  0.71862369  0.08068013  0.24400829     0.02200
C853        C  0.75713235  0.07181511  0.23324338    -0.10000
C854        C  0.79410740  0.08292749  0.24326556     0.04700
C855        C  0.79252356  0.10280690  0.26456511    -0.09400
H856        H  0.68770197  0.10691878  0.27439987     0.10300
H857        H  0.75833792  0.05590513  0.21719823     0.07800
H858        H  0.82101217  0.11188684  0.27188522     0.07700
Fe859      Fe  0.95408861  0.48624861  0.14727818     1.65800
Fe860      Fe  0.56004306  0.48338245  0.14773539     1.73200
Fe861      Fe  0.50539448  0.48411551  0.20971057     1.54400
O862        O  0.96446347  0.01708599  0.21240650    -0.80100
O863        O  0.58551295  0.45386928  0.17380444    -0.78400
O864        O  0.92821299  0.01595937  0.17299936    -0.82600
O865        O  0.92724640  0.45538809  0.17041219    -0.77500
O866        O  0.55366915  0.01155225  0.21321290    -0.79200
O867        O  0.54159142  0.45202335  0.12132088    -0.82000
C868        C  0.92972028  0.44729016  0.19559144     0.98800
C869        C  0.93489944  0.02567096  0.19719345     1.06200
O870        O  0.50653779  0.48454404  0.16825275    -1.11000
O871        O  0.54243548  0.01277895  0.11864629    -0.73400
O872        O  0.97382528  0.01752408  0.12144933    -0.76900
O873        O  0.95693030  0.45642663  0.21220566    -0.77600
C874        C  0.50859313  0.02414235  0.11117941     0.97700
O875        O  0.97274877  0.45641957  0.11886388    -0.75500
O876        O  0.58489211  0.01458907  0.17164912    -0.80700
C877        C  0.57757594  0.44368144  0.19770448     1.00300
C878        C  0.58131844  0.02152558  0.19723800     1.06200
O879        O  0.54657868  0.45130595  0.21244053    -0.76400
C880        C  0.50673063  0.44503307  0.11160711     1.04500
C881        C  0.90054249  0.04958815  0.23805896     0.25200
C882        C  0.90463699  0.04604886  0.20881567    -0.22900
C883        C  0.87507481  0.05868468  0.19114304     0.20100
C884        C  0.84016896  0.07200091  0.20247379     0.25100
C885        C  0.83423884  0.07316615  0.23161016    -0.22900
C886        C  0.86548271  0.06292145  0.24933835     0.20000
F887        F  0.86057159  0.06380603  0.27761491    -0.12800
F888        F  0.92863098  0.03827951  0.25594309    -0.15200
F889        F  0.81125452  0.08287940  0.18491715    -0.15200
F890        F  0.87876736  0.05703774  0.16282093    -0.12800
C891        C  0.65068951  0.05671538  0.25008981     0.25200
C892        C  0.68010851  0.06906746  0.23244134    -0.22900
C893        C  0.67400396  0.06864112  0.20332951     0.20100
C894        C  0.64051482  0.05461946  0.19188990     0.25100
C895        C  0.61229649  0.04061266  0.20938272    -0.22900
C896        C  0.61704104  0.04270337  0.23873635     0.20000
F897        F  0.59059561  0.02987827  0.25661210    -0.12800
F898        F  0.65592759  0.05664280  0.27830043    -0.15200
F899        F  0.63655163  0.05418782  0.16359019    -0.15200
F900        F  0.70111798  0.08139595  0.18585062    -0.12800
C901        C  0.86919836  0.41581080  0.18767301     0.25200
C902        C  0.89818791  0.42748517  0.20616857    -0.22900
C903        C  0.89414271  0.42191200  0.23510106     0.20100
C904        C  0.86092525  0.40637770  0.24527582     0.25100
C905        C  0.83101785  0.39606178  0.22684775    -0.22900
C906        C  0.83607816  0.40036890  0.19792745     0.20000
F907        F  0.80829236  0.39006747  0.17951739    -0.12800
F908        F  0.87193849  0.41992204  0.15958042    -0.15200
F909        F  0.85657486  0.40297200  0.27337960    -0.15200
F910        F  0.92101116  0.43261919  0.25387485    -0.12800
C911        C  0.65075105  0.40956353  0.24893037     0.25200
C912        C  0.67702556  0.39462663  0.23064766    -0.22900
C913        C  0.66690373  0.39269085  0.20217214     0.20100
C914        C  0.63253772  0.40707826  0.19167613     0.25100
C915        C  0.60771924  0.42366725  0.20955298    -0.22900
C916        C  0.61630715  0.42402244  0.23848052     0.20000
F917        F  0.59361268  0.44024742  0.25629538    -0.12800
F918        F  0.66020799  0.41186845  0.27650944    -0.15200
F919        F  0.62446882  0.40563093  0.16382910    -0.15200
F920        F  0.69128366  0.37759729  0.18435833    -0.12800
C921        C  0.77868519  0.15012193  0.34276336     0.25200
C922        C  0.75170570  0.17305205  0.34062759    -0.22900
C923        C  0.72553439  0.17565388  0.31738056     0.20100
C924        C  0.72650685  0.15564830  0.29632087     0.25100
C925        C  0.75308719  0.13243254  0.29850552    -0.22900
C926        C  0.77910893  0.12977325  0.32196482     0.20000
F927        F  0.80440474  0.10725702  0.32498013    -0.12800
F928        F  0.80384090  0.14713454  0.36530065    -0.15200
F929        F  0.70253717  0.15947066  0.27332575    -0.15200
F930        F  0.70016660  0.19816569  0.31456305    -0.12800
C931        C  0.78601973  0.31340124  0.33663535     0.25200
C932        C  0.75571950  0.29276791  0.33748724    -0.22900
C933        C  0.72790644  0.29050338  0.31504223     0.20100
C934        C  0.72950909  0.30904673  0.29265248     0.25100
C935        C  0.75838079  0.33068246  0.29247163    -0.22900
C936        C  0.78702594  0.33238505  0.31456143     0.20000
F937        F  0.81505777  0.35306328  0.31548115    -0.12800
F938        F  0.81397786  0.31576057  0.35761892    -0.15200
F939        F  0.70315077  0.30550202  0.27090303    -0.15200
F940        F  0.69987972  0.26977826  0.31430431    -0.12800
C941        C  0.60010514  0.15843616  0.49380404     0.25200
C942        C  0.57516953  0.14427749  0.47465461    -0.22900
C943        C  0.58550726  0.14473487  0.44600858     0.20100
C944        C  0.61930465  0.16005700  0.43653783     0.25100
C945        C  0.64335273  0.17513748  0.45560420    -0.22900
C946        C  0.63397011  0.17363966  0.48440445     0.20000
F947        F  0.65572537  0.18845922  0.50335013    -0.12800
F948        F  0.59012583  0.15897658  0.52149589    -0.15200
F949        F  0.62813998  0.16048328  0.40867287    -0.15200
F950        F  0.56254804  0.13059519  0.42717999    -0.12800
C951        C  0.89094417  0.14795843  0.49360390     0.25200
C952        C  0.92108099  0.13813542  0.47435384    -0.22900
C953        C  0.91440462  0.14221947  0.44560299     0.20100
C954        C  0.88068934  0.15811583  0.43639924     0.25100
C955        C  0.85257266  0.17034986  0.45579314    -0.22900
C956        C  0.85689426  0.16379374  0.48441370     0.20000
F957        F  0.82993734  0.17409766  0.00402971    -0.12800
F958        F  0.89622486  0.14416224  0.02171389    -0.15200
F959        F  0.87687213  0.16247959  0.40841917    -0.15200
F960        F  0.94162795  0.13174206  0.42634105    -0.12800
C961        C  0.97774419  0.08451374  0.06500940     0.25200
C962        C  0.50495046  0.08087588  0.04203612    -0.22900
C963        C  0.53519362  0.05956390  0.04298838     0.20100
C964        C  0.53766428  0.04199936  0.06614995     0.25100
C965        C  0.50931950  0.04493540  0.08854751    -0.22900
C966        C  0.97965932  0.06655309  0.08790321     0.20000
F967        F  0.95272881  0.07049175  0.10960979    -0.12800
F968        F  0.94974625  0.10579172  0.06559219    -0.15200
F969        F  0.56655695  0.02124790  0.06598159    -0.15200
F970        F  0.56149916  0.05503271  0.02104518    -0.12800
C971        C  0.57975055  0.32012514  0.45150714     0.25200
C972        C  0.57234507  0.32046616  0.48052788    -0.22900
C973        C  0.60127975  0.30775469  0.49840971     0.20100
C974        C  0.63595813  0.29368420  0.48744281     0.25100
C975        C  0.64251502  0.29196994  0.45819492    -0.22900
C976        C  0.61448852  0.30614842  0.44041289     0.20000
F977        F  0.61968362  0.30577626  0.41215180    -0.12800
F978        F  0.55292415  0.33290525  0.93370675    -0.15200
F979        F  0.66162936  0.28038897  0.50558827    -0.15200
F980        F  0.59455703  0.30737531  0.52653033    -0.12800
C981        C  0.90790281  0.32292713  0.45592345     0.25200
C982        C  0.91786598  0.32093486  0.48446674    -0.22900
C983        C  0.89218917  0.30559056  0.50237225     0.20100
C984        C  0.85873746  0.29088135  0.49154679     0.25100
C985        C  0.85047957  0.29127619  0.46256268    -0.22900
C986        C  0.87451506  0.30830808  0.44506710     0.20000
F987        F  0.86656711  0.31011185  0.41721728    -0.12800
F988        F  0.93149805  0.33833887  0.43835030    -0.15200
F989        F  0.83663052  0.27452645  0.50911707    -0.15200
F990        F  0.90142058  0.30309424  0.52997685    -0.12800
C991        C  0.99188685  0.39670459  0.09703079     0.25200
C992        C  0.50544672  0.42333286  0.09018563    -0.22900
C993        C  0.51554910  0.42969980  0.06232322     0.20100
C994        C  0.51220122  0.40957806  0.04144677     0.25100
C995        C  0.49850785  0.38290602  0.04818050    -0.22900
C996        C  0.98846500  0.37652168  0.07611288     0.20000
F997        F  0.97614628  0.35066495  0.08313487    -0.12800
F998        F  0.98221881  0.39029560  0.12397193    -0.15200
F999        F  0.52170623  0.41617722  0.01452837    -0.15200
F1000       F  0.52772484  0.45559760  0.05529365    -0.12800
C1001       C  0.49676363  0.36113675  0.52640373     0.04700
C1002       C  0.95860487  0.35104768  0.51705384    -0.11400
C1003       C  0.95742841  0.33243769  0.99458504     0.02200
C1004       C  0.99479653  0.32309910  0.98228062    -0.10000
C1005       C  0.53308024  0.33248529  0.99196459     0.04700
C1006       C  0.53383545  0.35165649  0.51393273    -0.09400
H1007       H  0.92993238  0.35837577  0.52666807     0.10300
H1008       H  0.99408840  0.30767477  0.96576739     0.07800
H1009       H  0.56325704  0.35934285  0.52131182     0.07700
C1010       C  0.50259763  0.09990231  0.51753475     0.04700
C1011       C  0.96403679  0.10739076  0.50585582    -0.11400
C1012       C  0.96174510  0.12696483  0.98430696     0.02200
C1013       C  0.49865580  0.13807070  0.97355967    -0.10000
C1014       C  0.53723837  0.13027920  0.98459212     0.04700
C1015       C  0.53892450  0.11155419  0.50664691    -0.09400
H1016       H  0.93585415  0.09826351  0.51384927     0.10300
H1017       H  0.49730678  0.15399885  0.95759131     0.07800
H1018       H  0.56869898  0.10652186  0.51590184     0.07700
Fe1019     Fe  0.80370917  0.23353357  0.89898667     1.65800
Fe1020     Fe  0.69789531  0.23475242  0.89721274     1.73200
Fe1021     Fe  0.74808128  0.23159356  0.96030039     1.54400
O1022       O  0.79493779  0.20157973  0.96316290    -0.80100
O1023       O  0.67356019  0.26690220  0.92063449    -0.78400
O1024       O  0.82737180  0.20151652  0.92203142    -0.82600
O1025       O  0.82876941  0.26224664  0.92583340    -0.77500
O1026       O  0.70554908  0.20014550  0.96095374    -0.79200
O1027       O  0.71921610  0.26286813  0.86817203    -0.82000
C1028       C  0.82108273  0.27131841  0.95034796     0.98800
C1029       C  0.82264083  0.19208150  0.94651727     1.06200
O1030       O  0.74990464  0.23341084  0.91886637    -1.11000
O1031       O  0.71626836  0.20270028  0.87169035    -0.73400
O1032       O  0.78543690  0.20448299  0.87000841    -0.76900
O1033       O  0.79074927  0.26288718  0.96503434    -0.77600
C1034       C  0.75116857  0.19449305  0.86226630     0.97700
O1035       O  0.78759001  0.26549860  0.87272092    -0.75500
O1036       O  0.66836536  0.20647825  0.92235578    -0.80700
C1037       C  0.67454108  0.27248973  0.94660773     1.00300
C1038       C  0.67479443  0.19462040  0.94561589     1.06200
O1039       O  0.70024941  0.26084174  0.96313140    -0.76400
C1040       C  0.75398242  0.27272483  0.86110485     1.04500
C1041       C  0.75717491  0.35195932  0.77020493     0.04700
C1042       C  0.79403452  0.36192669  0.75803318    -0.11400
C1043       C  0.79267231  0.38308664  0.73785609     0.02200
C1044       C  0.75403907  0.39334387  0.72901541    -0.10000
C1045       C  0.71717291  0.38321551  0.74042283     0.03500
C1046       C  0.71881810  0.36309748  0.76144275    -0.09400
H1047       H  0.82380351  0.35329909  0.76416510     0.10300
H1048       H  0.75255673  0.40992310  0.71370589     0.07800
H1049       H  0.69018155  0.35628922  0.77097077     0.07700
C1050       C  0.75415513  0.11134219  0.77600550     0.04700
C1051       C  0.71720749  0.10033362  0.76553790    -0.11400
C1052       C  0.71843433  0.08077741  0.74381455     0.02200
C1053       C  0.75693628  0.07184774  0.73309237    -0.10000
C1054       C  0.79394599  0.08282304  0.74321881     0.04700
C1055       C  0.79239340  0.10264276  0.76458778    -0.09400
H1056       H  0.68753995  0.10705991  0.77419028     0.10300
H1057       H  0.75810858  0.05596729  0.71701618     0.07800
H1058       H  0.82090751  0.11160240  0.77201486     0.07700
Fe1059     Fe  0.95400965  0.48614158  0.64717136     1.65800
Fe1060     Fe  0.55997075  0.48323249  0.64758316     1.73200
Fe1061     Fe  0.50541395  0.48395275  0.70957219     1.54400
O1062       O  0.96437628  0.01689080  0.71233760    -0.80100
O1063       O  0.58563671  0.45386207  0.67374562    -0.78400
O1064       O  0.92814811  0.01584068  0.67291865    -0.82600
O1065       O  0.92714920  0.45527481  0.67033315    -0.77500
O1066       O  0.55362700  0.01146286  0.71301711    -0.79200
O1067       O  0.54149667  0.45170201  0.62139159    -0.82000
C1068       C  0.92973893  0.44709879  0.69548658     0.98800
C1069       C  0.93479701  0.02549206  0.69714124     1.06200
O1070       O  0.50649501  0.48440799  0.66812490    -1.11000
O1071       O  0.54234831  0.01262421  0.61844568    -0.73400
O1072       O  0.97375280  0.01745642  0.62134074    -0.76900
O1073       O  0.95703120  0.45618727  0.71206974    -0.77600
C1074       C  0.50852027  0.02403414  0.61101005     0.97700
O1075       O  0.97261206  0.45630521  0.61876108    -0.75500
O1076       O  0.58487633  0.01447168  0.67145059    -0.80700
C1077       C  0.57763663  0.44356433  0.69758637     1.00300
C1078       C  0.58128025  0.02143361  0.69703549     1.06200
O1079       O  0.54651129  0.45106684  0.71226530    -0.76400
C1080       C  0.50663912  0.44485777  0.61156302     1.04500
C1081       C  0.90026392  0.04924444  0.73805174     0.25200
C1082       C  0.90447412  0.04582009  0.70880141    -0.22900
C1083       C  0.87498211  0.05853502  0.69113052     0.20100
C1084       C  0.84008128  0.07187040  0.70245435     0.25100
C1085       C  0.83406833  0.07297758  0.73158872    -0.22900
C1086       C  0.86520957  0.06260111  0.74932544     0.20000
F1087       F  0.86020261  0.06339236  0.77759681    -0.12800
F1088       F  0.92823695  0.03780949  0.75593724    -0.15200
F1089       F  0.81125967  0.08284029  0.68488501    -0.15200
F1090       F  0.87874810  0.05696374  0.66280787    -0.12800
C1091       C  0.65060886  0.05668802  0.74988296     0.25200
C1092       C  0.67991299  0.06916311  0.73224041    -0.22900
C1093       C  0.67376456  0.06876326  0.70313003     0.20100
C1094       C  0.64033279  0.05466807  0.69168796     0.25100
C1095       C  0.61222384  0.04055818  0.70917750    -0.22900
C1096       C  0.61702986  0.04259988  0.73852993     0.20000
F1097       F  0.59073045  0.02964164  0.75640331    -0.12800
F1098       F  0.65592052  0.05655643  0.77808635    -0.15200
F1099       F  0.63631728  0.05426802  0.66339115    -0.15200
F1100       F  0.70079500  0.08160227  0.68565674    -0.12800
C1101       C  0.86929049  0.41552222  0.68760976     0.25200
C1102       C  0.89825586  0.42725353  0.70608389    -0.22900
C1103       C  0.89424247  0.42168808  0.73502146     0.20100
C1104       C  0.86106052  0.40612865  0.74522366     0.25100
C1105       C  0.83115086  0.39576907  0.72681981    -0.22900
C1106       C  0.83621256  0.40004421  0.69788927     0.20000
F1107       F  0.80845918  0.38968305  0.67949188    -0.12800
F1108       F  0.87201739  0.41961005  0.65951319    -0.15200
F1109       F  0.85673869  0.40275182  0.77333254    -0.15200
F1110       F  0.92109782  0.43243887  0.75377761    -0.12800
C1111       C  0.65071319  0.40931472  0.74882967     0.25200
C1112       C  0.67711285  0.39446923  0.73054624    -0.22900
C1113       C  0.66711377  0.39264659  0.70203798     0.20100
C1114       C  0.63276703  0.40705575  0.69152803     0.25100
C1115       C  0.60782291  0.42355040  0.70941930    -0.22900
C1116       C  0.61628375  0.42378937  0.73836498     0.20000
F1117       F  0.59346076  0.43991052  0.75620064    -0.12800
F1118       F  0.66002492  0.41151505  0.77644055    -0.15200
F1119       F  0.62482113  0.40570600  0.66365893    -0.15200
F1120       F  0.69157637  0.37762742  0.68421069    -0.12800
C1121       C  0.77829057  0.14981220  0.84294103     0.25200
C1122       C  0.75168951  0.17292796  0.84069332    -0.22900
C1123       C  0.72583619  0.17572425  0.81730155     0.20100
C1124       C  0.72676040  0.15573635  0.79621274     0.25100
C1125       C  0.75298182  0.13235094  0.79849616    -0.22900
C1126       C  0.77868004  0.12949433  0.82209726     0.20000
F1127       F  0.80361465  0.10681394  0.82520234    -0.12800
F1128       F  0.80308934  0.14661484  0.86563044    -0.15200
F1129       F  0.70310232  0.15973003  0.77309870    -0.15200
F1130       F  0.70082270  0.19839744  0.81438630    -0.12800
C1131       C  0.78592500  0.31329103  0.83681878     0.25200
C1132       C  0.75552467  0.29272105  0.83772409    -0.22900
C1133       C  0.72762100  0.29052907  0.81532393     0.20100
C1134       C  0.72927004  0.30905127  0.79291285     0.25100
C1135       C  0.75826665  0.33061816  0.79266328    -0.22900
C1136       C  0.78697008  0.33226606  0.81472863     0.20000
F1137       F  0.81512606  0.35287044  0.81560162    -0.12800
F1138       F  0.81397250  0.31558490  0.85775646    -0.15200
F1139       F  0.70285170  0.30552897  0.77119402    -0.15200
F1140       F  0.69947387  0.26987531  0.81463516    -0.12800
C1141       C  0.60030355  0.15809692  0.99395714     0.25200
C1142       C  0.57534101  0.14400386  0.97477343    -0.22900
C1143       C  0.58575415  0.14443512  0.94614347     0.20100
C1144       C  0.61960500  0.15972385  0.93670947     0.25100
C1145       C  0.64360731  0.17481475  0.95579714    -0.22900
C1146       C  0.63421296  0.17327629  0.98459458     0.20000
F1147       F  0.65598858  0.18803862  0.00357525    -0.12800
F1148       F  0.59030441  0.15860472  0.02164691    -0.15200
F1149       F  0.62851965  0.16012373  0.90885553    -0.15200
F1150       F  0.56280877  0.13031071  0.92729540    -0.12800
C1151       C  0.89106493  0.14794645  0.99376614     0.25200
C1152       C  0.92118543  0.13814397  0.97449093    -0.22900
C1153       C  0.91447452  0.14223668  0.94574928     0.20100
C1154       C  0.88072392  0.15810814  0.93657213     0.25100
C1155       C  0.85261152  0.17031714  0.95598634    -0.22900
C1156       C  0.85697928  0.16376121  0.98460246     0.20000
F1157       F  0.82985302  0.17416110  0.50382435    -0.12800
F1158       F  0.89606902  0.14418762  0.52155612    -0.15200
F1159       F  0.87686320  0.16246752  0.90859427    -0.15200
F1160       F  0.94168069  0.13177526  0.92646804    -0.12800
C1161       C  0.97770743  0.08452874  0.56493316     0.25200
C1162       C  0.50501178  0.08100708  0.54199108    -0.22900
C1163       C  0.53533914  0.05974456  0.54295589     0.20100
C1164       C  0.53774500  0.04209270  0.56606448     0.25100
C1165       C  0.50926731  0.04489245  0.58840823    -0.22900
C1166       C  0.97956723  0.06648834  0.58777322     0.20000
F1167       F  0.95254424  0.07034137  0.60944153    -0.12800
F1168       F  0.94965018  0.10577147  0.56553411    -0.15200
F1169       F  0.56672697  0.02139716  0.56589289    -0.15200
F1170       F  0.56178848  0.05533595  0.52106717    -0.12800
C1171       C  0.57972162  0.32008919  0.95147828     0.25200
C1172       C  0.57221670  0.32053160  0.98048341    -0.22900
C1173       C  0.60100206  0.30777502  0.99844646     0.20100
C1174       C  0.63565096  0.29358786  0.98757098     0.25100
C1175       C  0.64233475  0.29181661  0.95833910    -0.22900
C1176       C  0.61443084  0.30600907  0.94047866     0.20000
F1177       F  0.61973292  0.30557040  0.91222719    -0.12800
F1178       F  0.55282325  0.33292625  0.43381324    -0.15200
F1179       F  0.66116877  0.28024996  0.00578239    -0.15200
F1180       F  0.59416100  0.30748444  0.02655622    -0.12800
C1181       C  0.90765267  0.32311412  0.95590968     0.25200
C1182       C  0.91775007  0.32117458  0.98443551    -0.22900
C1183       C  0.89227153  0.30573410  0.00238734     0.20100
C1184       C  0.85888059  0.29090281  0.99162624     0.25100
C1185       C  0.85046816  0.29127833  0.96266013    -0.22900
C1186       C  0.87432016  0.30838114  0.94511966     0.20000
F1187       F  0.86624042  0.31015285  0.91728619    -0.12800
F1188       F  0.93107709  0.33858289  0.93828445    -0.15200
F1189       F  0.83699094  0.27445888  0.00923516    -0.15200
F1190       F  0.90165291  0.30327001  0.02997125    -0.12800
C1191       C  0.99219979  0.39637736  0.59723683     0.25200
C1192       C  0.50528769  0.42309269  0.59022656    -0.22900
C1193       C  0.51467457  0.42948311  0.56226226     0.20100
C1194       C  0.51137087  0.40926804  0.54148596     0.25100
C1195       C  0.49841336  0.38248543  0.54842262    -0.22900
C1196       C  0.98883219  0.37610270  0.57640460     0.20000
F1197       F  0.97700257  0.35017772  0.58356922    -0.12800
F1198       F  0.98297309  0.38998919  0.62425320    -0.15200
F1199       F  0.52023087  0.41586756  0.51446927    -0.15200
F1200       F  0.52617120  0.45547451  0.55505138    -0.12800
C1201       C  0.49674237  0.86157972  0.02613816     0.04700
C1202       C  0.95852230  0.85148557  0.01684458    -0.11400
C1203       C  0.95750292  0.83208938  0.49473513     0.02200
C1204       C  0.99489303  0.82284579  0.48239093    -0.10000
C1205       C  0.53316164  0.83224801  0.49212489     0.04700
C1206       C  0.53378475  0.85195747  0.01372679    -0.09400
H1207       H  0.92987198  0.85887404  0.02644244     0.10300
H1208       H  0.99422771  0.80750895  0.46579314     0.07800
H1209       H  0.56324232  0.85959297  0.02109575     0.07700
C1210       C  0.50261737  0.59976418  0.01760444     0.04700
C1211       C  0.96409023  0.60734467  0.00597549    -0.11400
C1212       C  0.96170294  0.62705360  0.48424746     0.02200
C1213       C  0.49855920  0.63820976  0.47350544    -0.10000
C1214       C  0.53716227  0.63049929  0.48455233     0.04700
C1215       C  0.53898724  0.61133209  0.00670671    -0.09400
H1216       H  0.93587707  0.59827001  0.01398419     0.10300
H1217       H  0.49715911  0.65411590  0.45751617     0.07800
H1218       H  0.56874960  0.60622203  0.01594068     0.07700
Fe1219     Fe  0.80376726  0.73364995  0.39881589     1.65800
Fe1220     Fe  0.69794451  0.73495744  0.39701622     1.73200
Fe1221     Fe  0.74808103  0.73164827  0.46007738     1.54400
O1222       O  0.79495766  0.70165460  0.46294226    -0.80100
O1223       O  0.67379569  0.76722414  0.42037192    -0.78400
O1224       O  0.82738725  0.70156472  0.42181092    -0.82600
O1225       O  0.82884436  0.76228557  0.42570816    -0.77500
O1226       O  0.70557396  0.70019308  0.46066815    -0.79200
O1227       O  0.71940195  0.76292914  0.36789458    -0.82000
C1228       C  0.82107696  0.77135913  0.45020709     0.98800
C1229       C  0.82265516  0.69214032  0.44630331     1.06200
O1230       O  0.74994554  0.73353293  0.41866686    -1.11000
O1231       O  0.71624936  0.70281201  0.37160986    -0.73400
O1232       O  0.78541883  0.70469444  0.36980375    -0.76900
O1233       O  0.79068628  0.76295065  0.46484775    -0.77600
C1234       C  0.75114971  0.69465585  0.36213535     0.97700
O1235       O  0.78773250  0.76566881  0.37260325    -0.75500
O1236       O  0.66818879  0.70682505  0.42221123    -0.80700
C1237       C  0.67466951  0.77265840  0.44638307     1.00300
C1238       C  0.67466065  0.69485612  0.44540714     1.06200
O1239       O  0.70024309  0.76086549  0.46289484    -0.76400
C1240       C  0.75416856  0.77281453  0.36088733     1.04500
C1241       C  0.75721856  0.85205272  0.27006285     0.04700
C1242       C  0.79403692  0.86208033  0.25790843    -0.11400
C1243       C  0.79261073  0.88332929  0.23784165     0.02200
C1244       C  0.75396007  0.89361834  0.22908126    -0.10000
C1245       C  0.71713375  0.88341404  0.24047020     0.03500
C1246       C  0.71883044  0.86319647  0.26138480    -0.09400
H1247       H  0.82382579  0.85344129  0.26398527     0.10300
H1248       H  0.75243392  0.91025923  0.21384071     0.07800
H1249       H  0.69022124  0.85631777  0.27089753     0.07700
C1250       C  0.75427236  0.61142218  0.27603290     0.04700
C1251       C  0.71734235  0.60028948  0.26568918    -0.11400
C1252       C  0.71857405  0.58069562  0.24401057     0.02200
C1253       C  0.75707276  0.57180836  0.23324738    -0.10000
C1254       C  0.79405960  0.58291291  0.24325808     0.04700
C1255       C  0.79249700  0.60280800  0.26454376    -0.09400
H1256       H  0.68767909  0.60696774  0.27438421     0.10300
H1257       H  0.75826081  0.55588780  0.21721252     0.07800
H1258       H  0.82099513  0.61187985  0.27185726     0.07700
Fe1259     Fe  0.95407997  0.98626459  0.14727873     1.65800
Fe1260     Fe  0.56004727  0.98339057  0.14773066     1.73200
Fe1261     Fe  0.50542831  0.98411007  0.20969718     1.54400
O1262       O  0.96450234  0.51713319  0.21238908    -0.80100
O1263       O  0.58561668  0.95398623  0.17388323    -0.78400
O1264       O  0.92815490  0.51589662  0.17302701    -0.82600
O1265       O  0.92720042  0.95544727  0.17044889    -0.77500
O1266       O  0.55348521  0.51167083  0.21322712    -0.79200
O1267       O  0.54164008  0.95192466  0.12143067    -0.82000
C1268       C  0.92975349  0.94728456  0.19560188     0.98800
C1269       C  0.93487662  0.52565675  0.19719641     1.06200
O1270       O  0.50655855  0.98454601  0.16824661    -1.11000
O1271       O  0.54252246  0.51287803  0.11874278    -0.73400
O1272       O  0.97383430  0.51755129  0.12149930    -0.76900
O1273       O  0.95702894  0.95636695  0.21219718    -0.77600
C1274       C  0.50865451  0.52413383  0.11117356     0.97700
O1275       O  0.97269383  0.95639202  0.11890138    -0.75500
O1276       O  0.58499093  0.51447468  0.17173984    -0.80700
C1277       C  0.57758024  0.94369607  0.19772285     1.00300
C1278       C  0.58126525  0.52153328  0.19728477     1.06200
O1279       O  0.54645681  0.95120495  0.21239891    -0.76400
C1280       C  0.50679751  0.94505300  0.11159714     1.04500
C1281       C  0.90048321  0.54955134  0.23805892     0.25200
C1282       C  0.90458997  0.54601863  0.20881602    -0.22900
C1283       C  0.87502152  0.55864259  0.19114040     0.20100
C1284       C  0.84011046  0.57195636  0.20246757     0.25100
C1285       C  0.83418108  0.57313062  0.23160395    -0.22900
C1286       C  0.86541937  0.56288299  0.24933495     0.20000
F1287       F  0.86049989  0.56376583  0.27761093    -0.12800
F1288       F  0.92856329  0.53823598  0.25594479    -0.15200
F1289       F  0.81119475  0.58282823  0.18490781    -0.15200
F1290       F  0.87871967  0.55699059  0.16281884    -0.12800
C1291       C  0.65063543  0.55674205  0.25011558     0.25200
C1292       C  0.68004760  0.56908917  0.23245726    -0.22900
C1293       C  0.67393060  0.56865780  0.20334721     0.20100
C1294       C  0.64043627  0.55463477  0.19191856     0.25100
C1295       C  0.61222716  0.54063249  0.20942078    -0.22900
C1296       C  0.61698172  0.54272709  0.23877180     0.20000
F1297       F  0.59055397  0.52989051  0.25665087    -0.12800
F1298       F  0.65589046  0.55667295  0.27832466    -0.15200
F1299       F  0.63645527  0.55419653  0.16362002    -0.15200
F1300       F  0.70104065  0.58140539  0.18585988    -0.12800
C1301       C  0.86924684  0.91579747  0.18767094     0.25200
C1302       C  0.89823384  0.92746770  0.20617116    -0.22900
C1303       C  0.89419132  0.92188379  0.23510081     0.20100
C1304       C  0.86097105  0.90634870  0.24527037     0.25100
C1305       C  0.83105818  0.89604413  0.22683918    -0.22900
C1306       C  0.83612196  0.90035646  0.19792008     0.20000
F1307       F  0.80833480  0.89006203  0.17950686    -0.12800
F1308       F  0.87199720  0.91991088  0.15957897    -0.15200
F1309       F  0.85662126  0.90293353  0.27337290    -0.15200
F1310       F  0.92105946  0.93258702  0.25387706    -0.12800
C1311       C  0.65077717  0.90958132  0.24893740     0.25200
C1312       C  0.67705815  0.89465218  0.23064976    -0.22900
C1313       C  0.66694370  0.89273483  0.20217115     0.20100
C1314       C  0.63257523  0.90712412  0.19168065     0.25100
C1315       C  0.60773926  0.92369141  0.20956576    -0.22900
C1316       C  0.61632556  0.92403914  0.23849162     0.20000
F1317       F  0.59362036  0.94025790  0.25630596    -0.12800
F1318       F  0.66023245  0.91187774  0.27651731    -0.15200
F1319       F  0.62451485  0.90569847  0.16383119    -0.15200
F1320       F  0.69133122  0.87765567  0.18434956    -0.12800
C1321       C  0.77866085  0.65013849  0.34274271     0.25200
C1322       C  0.75169369  0.67307435  0.34060404    -0.22900
C1323       C  0.72555034  0.67569307  0.31734484     0.20100
C1324       C  0.72652914  0.65569231  0.29627970     0.25100
C1325       C  0.75308793  0.63246605  0.29847182    -0.22900
C1326       C  0.77909091  0.62979530  0.32193896     0.20000
F1327       F  0.80436919  0.60727109  0.32495888    -0.12800
F1328       F  0.80379631  0.64713981  0.36528887    -0.15200
F1329       F  0.70258270  0.65952590  0.27327525    -0.15200
F1330       F  0.70020312  0.69821457  0.31452339    -0.12800
C1331       C  0.78604155  0.81340122  0.33662589     0.25200
C1332       C  0.75575010  0.79276156  0.33747689    -0.22900
C1333       C  0.72794953  0.79048712  0.31502471     0.20100
C1334       C  0.72954719  0.80903124  0.29263435     0.25100
C1335       C  0.75840695  0.83067313  0.29245626    -0.22900
C1336       C  0.78704722  0.83238176  0.31454853     0.20000
F1337       F  0.81507364  0.85306344  0.31546690    -0.12800
F1338       F  0.81399171  0.81577035  0.35761304    -0.15200
F1339       F  0.70319646  0.80548202  0.27088150    -0.15200
F1340       F  0.69993851  0.76975284  0.31428117    -0.12800
C1341       C  0.60015146  0.65843409  0.49382354     0.25200
C1342       C  0.57520224  0.64427707  0.47468138    -0.22900
C1343       C  0.58552172  0.64473483  0.44603196     0.20100
C1344       C  0.61931376  0.66005674  0.43655127     0.25100
C1345       C  0.64337450  0.67513519  0.45561087    -0.22900
C1346       C  0.63401073  0.67363742  0.48441366     0.20000
F1347       F  0.65577711  0.68845927  0.50335157    -0.12800
F1348       F  0.59018831  0.65897547  0.52151792    -0.15200
F1349       F  0.62813213  0.66048532  0.40868401    -0.15200
F1350       F  0.56254721  0.63059811  0.42720974    -0.12800
C1351       C  0.89097924  0.64800152  0.49362832     0.25200
C1352       C  0.92112233  0.63817275  0.47438611    -0.22900
C1353       C  0.91445325  0.64224613  0.44563276     0.20100
C1354       C  0.88073567  0.65813383  0.43641745     0.25100
C1355       C  0.85260661  0.67037016  0.45580165    -0.22900
C1356       C  0.85692642  0.66382852  0.48442682     0.20000
F1357       F  0.82996377  0.67413894  0.00403878    -0.12800
F1358       F  0.89625011  0.64421631  0.02174861    -0.15200
F1359       F  0.87692858  0.66248597  0.40843497    -0.15200
F1360       F  0.94168441  0.63176418  0.42637839    -0.12800
C1361       C  0.97782591  0.58454168  0.06505975     0.25200
C1362       C  0.50499099  0.58089071  0.04205807    -0.22900
C1363       C  0.53522042  0.55956723  0.04299009     0.20100
C1364       C  0.53770299  0.54199580  0.06614687     0.25100
C1365       C  0.50938255  0.54493588  0.08855514    -0.22900
C1366       C  0.97973061  0.56656847  0.08794419     0.20000
F1367       F  0.95283668  0.57052497  0.10966811    -0.12800
F1368       F  0.94986990  0.60584356  0.06566540    -0.15200
F1369       F  0.56657285  0.52123011  0.06596405    -0.15200
F1370       F  0.56149712  0.55503175  0.02103212    -0.12800
C1371       C  0.57975064  0.82013279  0.45152061     0.25200
C1372       C  0.57232884  0.82044923  0.48053964    -0.22900
C1373       C  0.60123581  0.80770433  0.49841674     0.20100
C1374       C  0.63590651  0.79362868  0.48744519     0.25100
C1375       C  0.64248486  0.79194467  0.45819676    -0.22900
C1376       C  0.61448149  0.80615145  0.44042135     0.20000
F1377       F  0.61969281  0.80580449  0.41216144    -0.12800
F1378       F  0.55286983  0.83288022  0.93376503    -0.15200
F1379       F  0.66155040  0.78030205  0.50558517    -0.15200
F1380       F  0.59449261  0.80729987  0.52653485    -0.12800
C1381       C  0.90789959  0.82290048  0.45593985     0.25200
C1382       C  0.91784376  0.82091435  0.48448673    -0.22900
C1383       C  0.89215094  0.80557937  0.50238999     0.20100
C1384       C  0.85869875  0.79087472  0.49155956     0.25100
C1385       C  0.85045745  0.79126611  0.46257369    -0.22900
C1386       C  0.87451151  0.80828624  0.44507903     0.20000
F1387       F  0.86658130  0.81008171  0.41722624    -0.12800
F1388       F  0.93151505  0.83829983  0.43836784    -0.15200
F1389       F  0.83657654  0.77452524  0.50912632    -0.15200
F1390       F  0.90136745  0.80308655  0.52999724    -0.12800
C1391       C  0.99179320  0.89673211  0.09702193     0.25200
C1392       C  0.50549344  0.92334715  0.09018243    -0.22900
C1393       C  0.51536560  0.92973595  0.06228813     0.20100
C1394       C  0.51199963  0.90959835  0.04142752     0.25100
C1395       C  0.49849813  0.88289367  0.04820869    -0.22900
C1396       C  0.98838112  0.87653938  0.07611357     0.20000
F1397       F  0.97602426  0.85069295  0.08314269    -0.12800
F1398       F  0.98208396  0.89034145  0.12396098    -0.15200
F1399       F  0.52130928  0.91620942  0.01448165    -0.15200
F1400       F  0.52735850  0.95566234  0.05521828    -0.12800
C1401       C  0.49675039  0.86114001  0.52640131     0.04700
C1402       C  0.95857603  0.85103162  0.51707202    -0.11400
C1403       C  0.95738041  0.83241899  0.99461050     0.02200
C1404       C  0.99474494  0.82306032  0.98231757    -0.10000
C1405       C  0.53305353  0.83243352  0.99202410     0.04700
C1406       C  0.53382473  0.85164663  0.51394254    -0.09400
H1407       H  0.92990117  0.85836600  0.52667826     0.10300
H1408       H  0.99403038  0.80763024  0.96581000     0.07800
H1409       H  0.56324730  0.85932598  0.52132738     0.07700
C1410       C  0.50261076  0.59992504  0.51757489     0.04700
C1411       C  0.96406981  0.60742358  0.50589298    -0.11400
C1412       C  0.96178525  0.62700073  0.98435824     0.02200
C1413       C  0.49868266  0.63809487  0.97358722    -0.10000
C1414       C  0.53726580  0.63029406  0.98461041     0.04700
C1415       C  0.53894498  0.61156162  0.50667948    -0.09400
H1416       H  0.93588386  0.59830335  0.51388957     0.10300
H1417       H  0.49733561  0.65402059  0.95761622     0.07800
H1418       H  0.56872011  0.60651219  0.51592485     0.07700
Fe1419     Fe  0.80371344  0.73352718  0.89898347     1.65800
Fe1420     Fe  0.69790255  0.73475591  0.89720410     1.73200
Fe1421     Fe  0.74807883  0.73158267  0.96028904     1.54400
O1422       O  0.79499968  0.70161642  0.96316537    -0.80100
O1423       O  0.67358630  0.76692608  0.92061488    -0.78400
O1424       O  0.82735192  0.70148154  0.92200552    -0.82600
O1425       O  0.82878276  0.76221167  0.92585975    -0.77500
O1426       O  0.70561652  0.70009557  0.96091958    -0.79200
O1427       O  0.71924965  0.76284962  0.86814634    -0.82000
C1428       C  0.82104747  0.77131709  0.95035576     0.98800
C1429       C  0.82266887  0.69208768  0.94651244     1.06200
O1430       O  0.74990855  0.73340607  0.91885776    -1.11000
O1431       O  0.71626290  0.70268645  0.87169541    -0.73400
O1432       O  0.78542817  0.70450648  0.86997695    -0.76900
O1433       O  0.79067444  0.76291669  0.96502318    -0.77600
C1434       C  0.75116249  0.69450097  0.86224927     0.97700
O1435       O  0.78761236  0.76551963  0.87274287    -0.75500
O1436       O  0.66835312  0.70650189  0.92236585    -0.80700
C1437       C  0.67450790  0.77246134  0.94660179     1.00300
C1438       C  0.67482144  0.69460884  0.94560384     1.06200
O1439       O  0.70018335  0.76078101  0.96312441    -0.76400
C1440       C  0.75401454  0.77272334  0.86109915     1.04500
C1441       C  0.75721444  0.85193552  0.77017458     0.04700
C1442       C  0.79407573  0.86190420  0.75800728    -0.11400
C1443       C  0.79271697  0.88306257  0.73782883     0.02200
C1444       C  0.75408590  0.89331897  0.72898340    -0.10000
C1445       C  0.71721645  0.88319028  0.74038565     0.03500
C1446       C  0.71885747  0.86306955  0.76140484    -0.09400
H1447       H  0.82384388  0.85328010  0.76414605     0.10300
H1448       H  0.75260791  0.90989968  0.71367529     0.07800
H1449       H  0.69021951  0.85625786  0.77092848     0.07700
C1450       C  0.75415332  0.61135047  0.77598444     0.04700
C1451       C  0.71720174  0.60034054  0.76552354    -0.11400
C1452       C  0.71842353  0.58077211  0.74381109     0.02200
C1453       C  0.75692177  0.57183204  0.73309315    -0.10000
C1454       C  0.79393451  0.58280933  0.74321092     0.04700
C1455       C  0.79238891  0.60264052  0.76456955    -0.09400
H1456       H  0.68753576  0.60707356  0.77417351     0.10300
H1457       H  0.75808814  0.55594295  0.71702553     0.07800
H1458       H  0.82090606  0.61160022  0.77199118     0.07700
Fe1459     Fe  0.95400167  0.98616678  0.64717312     1.65800
Fe1460     Fe  0.55999241  0.98324747  0.64756193     1.73200
Fe1461     Fe  0.50544825  0.98394936  0.70955827     1.54400
O1462       O  0.96440642  0.51691122  0.71232389    -0.80100
O1463       O  0.58566285  0.95385579  0.67370028    -0.78400
O1464       O  0.92811405  0.51578666  0.67293415    -0.82600
O1465       O  0.92711768  0.95532781  0.67035642    -0.77500
O1466       O  0.55362752  0.51144028  0.71303069    -0.79200
O1467       O  0.54149959  0.95173778  0.62134866    -0.82000
C1468       C  0.92976221  0.94710661  0.69549134     0.98800
C1469       C  0.93478868  0.52547260  0.69713948     1.06200
O1470       O  0.50651936  0.98441790  0.66811011    -1.11000
O1471       O  0.54232389  0.51258783  0.61844352    -0.73400
O1472       O  0.97375565  0.51745781  0.62136668    -0.76900
O1473       O  0.95709769  0.95615827  0.71206281    -0.77600
C1474       C  0.50850137  0.52401517  0.61102133     0.97700
O1475       O  0.97256698  0.95630309  0.61878360    -0.75500
O1476       O  0.58483691  0.51447587  0.67145353    -0.80700
C1477       C  0.57769173  0.94357063  0.69755106     1.00300
C1478       C  0.58126507  0.52142214  0.69704395     1.06200
O1479       O  0.54658688  0.95108480  0.71224382    -0.76400
C1480       C  0.50663437  0.94487873  0.61154204     1.04500
C1481       C  0.90025165  0.54922863  0.73804457     0.25200
C1482       C  0.90445617  0.54579515  0.70879521    -0.22900
C1483       C  0.87495325  0.55849504  0.69112250     0.20100
C1484       C  0.84005366  0.57183253  0.70244490     0.25100
C1485       C  0.83405178  0.57295577  0.73157994    -0.22900
C1486       C  0.86519818  0.56258724  0.74931717     0.20000
F1487       F  0.86019747  0.56338842  0.77758874    -0.12800
F1488       F  0.92822892  0.53779934  0.75593071    -0.15200
F1489       F  0.81122317  0.58278924  0.68487394    -0.15200
F1490       F  0.87870981  0.55690819  0.66280014    -0.12800
C1491       C  0.65061006  0.55667204  0.74988678     0.25200
C1492       C  0.67990189  0.56915531  0.73224170    -0.22900
C1493       C  0.67374802  0.56875504  0.70313202     0.20100
C1494       C  0.64031742  0.55465666  0.69169275     0.25100
C1495       C  0.61221584  0.54054272  0.70918451    -0.22900
C1496       C  0.61703312  0.54257919  0.73853672     0.20000
F1497       F  0.59074682  0.52961209  0.75641221    -0.12800
F1498       F  0.65593358  0.55653704  0.77808908    -0.15200
F1499       F  0.63629735  0.55425683  0.66339625    -0.15200
F1500       F  0.70077409  0.58159538  0.68565659    -0.12800
C1501       C  0.86934223  0.91551250  0.68759928     0.25200
C1502       C  0.89829191  0.92725008  0.70608048    -0.22900
C1503       C  0.89427167  0.92168120  0.73501619     0.20100
C1504       C  0.86109436  0.90611297  0.74521075     0.25100
C1505       C  0.83119672  0.89574889  0.72680034    -0.22900
C1506       C  0.83626820  0.90002637  0.69787095     0.20000
F1507       F  0.80852723  0.88966068  0.67946751    -0.12800
F1508       F  0.87208292  0.91960073  0.65950320    -0.15200
F1509       F  0.85676216  0.90273388  0.77331855    -0.15200
F1510       F  0.92111041  0.93244151  0.75377755    -0.12800
C1511       C  0.65076895  0.90930575  0.74879095     0.25200
C1512       C  0.67716048  0.89445331  0.73050806    -0.22900
C1513       C  0.66716606  0.89264139  0.70199796     0.20100
C1514       C  0.63282853  0.90706169  0.69148756     0.25100
C1515       C  0.60788690  0.92355734  0.70938003    -0.22900
C1516       C  0.61634898  0.92379130  0.73832618     0.20000
F1517       F  0.59353508  0.93991607  0.75616374    -0.12800
F1518       F  0.66008042  0.91150195  0.77640222    -0.15200
F1519       F  0.62488825  0.90571911  0.66361737    -0.15200
F1520       F  0.69162507  0.87762134  0.68416922    -0.12800
C1521       C  0.77828654  0.64982351  0.84291933     0.25200
C1522       C  0.75168903  0.67294085  0.84067041    -0.22900
C1523       C  0.72584936  0.67574328  0.81727250     0.20100
C1524       C  0.72677624  0.65575562  0.79618218     0.25100
C1525       C  0.75298778  0.63236547  0.79847015    -0.22900
C1526       C  0.77867913  0.62950665  0.82207437     0.20000
F1527       F  0.80360793  0.60682388  0.82518247    -0.12800
F1528       F  0.80307845  0.64662341  0.86561178    -0.15200
F1529       F  0.70312860  0.65975229  0.77306374    -0.15200
F1530       F  0.70084628  0.69842103  0.81435410    -0.12800
C1531       C  0.78594635  0.81329546  0.83681021     0.25200
C1532       C  0.75556579  0.79271189  0.83770961    -0.22900
C1533       C  0.72768775  0.79050027  0.81529614     0.20100
C1534       C  0.72933460  0.80901985  0.79288195     0.25100
C1535       C  0.75830794  0.83059989  0.79263881    -0.22900
C1536       C  0.78699250  0.83226476  0.81471413     0.20000
F1537       F  0.81512980  0.85288048  0.81559020    -0.12800
F1538       F  0.81397231  0.81560832  0.85775869    -0.15200
F1539       F  0.70293767  0.80548291  0.77115378    -0.15200
F1540       F  0.69956775  0.76983047  0.81459819    -0.12800
C1541       C  0.60032701  0.65811633  0.99395942     0.25200
C1542       C  0.57536824  0.64401123  0.97478323    -0.22900
C1543       C  0.58578048  0.64442790  0.94615255     0.20100
C1544       C  0.61963181  0.65971189  0.93671060     0.25100
C1545       C  0.64363357  0.67481010  0.95579132    -0.22900
C1546       C  0.63423613  0.67329044  0.98458884     0.20000
F1547       F  0.65600626  0.68806908  0.00355943    -0.12800
F1548       F  0.59032268  0.65864151  0.02164810    -0.15200
F1549       F  0.62854902  0.66010050  0.90885681    -0.15200
F1550       F  0.56283284  0.63029526  0.92731216    -0.12800
C1551       C  0.89110035  0.64798852  0.99379824     0.25200
C1552       C  0.92122729  0.63817676  0.97453291    -0.22900
C1553       C  0.91452539  0.64225587  0.94578796     0.20100
C1554       C  0.88077754  0.65812211  0.93659666     0.25100
C1555       C  0.85265408  0.67033767  0.95599911    -0.22900
C1556       C  0.85701577  0.66379732  0.98462052     0.20000
F1557       F  0.82987490  0.67419744  0.50383030    -0.12800
F1558       F  0.89609733  0.64424099  0.52158263    -0.15200
F1559       F  0.87693064  0.66246878  0.90861601    -0.15200
F1560       F  0.94173740  0.63178433  0.92651601    -0.12800
C1561       C  0.97775747  0.58453849  0.56496200     0.25200
C1562       C  0.50501956  0.58101794  0.54202300    -0.22900
C1563       C  0.53531053  0.55973091  0.54296458     0.20100
C1564       C  0.53770609  0.54206512  0.56606370     0.25100
C1565       C  0.50925558  0.54487759  0.58842214    -0.22900
C1566       C  0.97960716  0.56648724  0.58779417     0.20000
F1567       F  0.95260842  0.57035158  0.60947418    -0.12800
F1568       F  0.94973153  0.60579909  0.56558079    -0.15200
F1569       F  0.56665143  0.52134676  0.56587015    -0.15200
F1570       F  0.56173321  0.55531382  0.52106287    -0.12800
C1571       C  0.57967150  0.82004886  0.95152264     0.25200
C1572       C  0.57218042  0.82047657  0.98052997    -0.22900
C1573       C  0.60096487  0.80770020  0.99847846     0.20100
C1574       C  0.63560503  0.79351488  0.98758637     0.25100
C1575       C  0.64228278  0.79176617  0.95835114    -0.22900
C1576       C  0.61437076  0.80596979  0.94050599     0.20000
F1577       F  0.61965532  0.80554484  0.91225310    -0.12800
F1578       F  0.55284528  0.83296346  0.43383305    -0.15200
F1579       F  0.66112559  0.78016214  0.00578529    -0.15200
F1580       F  0.59413338  0.80739189  0.02658905    -0.12800
C1581       C  0.90762369  0.82310016  0.95592556     0.25200
C1582       C  0.91769801  0.82116945  0.98445570    -0.22900
C1583       C  0.89219521  0.80574559  0.00240657     0.20100
C1584       C  0.85880536  0.79091755  0.99164003     0.25100
C1585       C  0.85042034  0.79128088  0.96267045    -0.22900
C1586       C  0.87429247  0.80837075  0.94513056     0.20000
F1587       F  0.86623533  0.81013042  0.91729322    -0.12800
F1588       F  0.93107277  0.83855332  0.93830114    -0.15200
F1589       F  0.83689273  0.77448544  0.00924731    -0.15200
F1590       F  0.90155323  0.80329197  0.02999513    -0.12800
C1591       C  0.99208103  0.89640895  0.59723143     0.25200
C1592       C  0.50527367  0.92311231  0.59020726    -0.22900
C1593       C  0.51463107  0.92950155  0.56223798     0.20100
C1594       C  0.51132508  0.90928127  0.54146657     0.25100
C1595       C  0.49839645  0.88249496  0.54841377    -0.22900
C1596       C  0.98872296  0.87612532  0.57640743     0.20000
F1597       F  0.97683559  0.85021369  0.58357636    -0.12800
F1598       F  0.98279198  0.89004168  0.62424339    -0.15200
F1599       F  0.52015503  0.91587868  0.51444493    -0.15200
F1600       F  0.52610054  0.95549607  0.55501795    -0.12800
loop_ 
_geom_bond_atom_site_label_1 
_geom_bond_atom_site_label_2 
_geom_bond_distance 
_geom_bond_site_symmetry_2 
_ccdc_geom_bond_type 
C1            C6   1.402   1_655  A
C1          C802   1.406       .  A
C1          C195   1.474       .  S
C2          C801   1.406       .  A
C2          C203   1.405   1_554  A
C2            H7   1.083       .  S
C3            C4   1.404       .  A
C3          C202   1.405       .  A
C3          C182   1.481       .  S
C4          C805   1.402       .  A
C4            H8   1.085       .  S
C5          C804   1.402   1_455  A
C5          C206   1.400       .  A
C5          C172   1.481       .  S
C6          C205   1.401   1_554  A
C6            H9   1.084       .  S
C10          C15   1.403       .  A
C10         C811   1.408   1_455  A
C10         C162   1.483       .  S
C11         C810   1.408       .  A
C11         C212   1.404   1_554  A
C11          H16   1.082       .  S
C12         C211   1.405       .  A
C12         C813   1.405       .  A
C12         C152   1.486       .  S
C13          C14   1.400   1_655  A
C13         C812   1.405       .  A
C13          H17   1.084       .  S
C14         C215   1.399       .  A
C14         C142   1.478       .  S
C15         C214   1.398   1_554  A
C15          H18   1.084       .  S
Fe19         O35   2.053       .  S
Fe19         O25   2.063       .  S
Fe19         O32   2.063       .  S
Fe19         O24   2.041       .  S
Fe19         O30   1.971       .  S
Fe20         O23   2.055       .  S
Fe20         O27   2.062       .  S
Fe20         O31   2.046       .  S
Fe20         O36   2.058       .  S
Fe20         O30   1.976       .  S
Fe21         O39   2.079       .  S
Fe21         O26   2.061       .  S
Fe21         O33   2.071       .  S
Fe21         O22   2.083       .  S
Fe21         O30   1.979       .  S
O22          C29   1.271       .  A
O23          C37   1.269       .  A
O24          C29   1.264       .  A
O25          C28   1.270       .  A
O26          C38   1.268       .  A
O27          C40   1.267       .  A
C28         C185   1.484       .  S
C28          O33   1.271       .  A
C29         C155   1.490       .  S
O31          C34   1.266       .  A
O32          C34   1.269       .  A
C34         C122   1.463       .  S
O35          C40   1.265       .  A
O36          C38   1.267       .  A
C37         C175   1.491       .  S
C37          O39   1.273       .  A
C38         C145   1.477       .  S
C40         C132   1.477       .  S
C41          C42   1.409       .  A
C41          C46   1.407       .  A
C41         C135   1.487       .  S
C42          C43   1.405       .  A
C42          H47   1.083       .  S
C43          C44   1.401       .  A
C43         C105   1.484       .  S
C44          C45   1.398       .  A
C44          H48   1.085       .  S
C45          C46   1.398       .  A
C45         C112   1.474       .  S
C46          H49   1.082       .  S
C50          C51   1.406       .  A
C50          C55   1.402       .  A
C50         C125   1.476       .  S
C51          C52   1.401       .  A
C51          H56   1.084       .  S
C52          C53   1.401       .  A
C52          C92   1.480       .  S
C53          C54   1.401       .  A
C53          H57   1.084       .  S
C54          C55   1.398       .  A
C54          C85   1.475       .  S
C55          H58   1.083       .  S
Fe59         O75   2.058       .  S
Fe59         O65   2.053       .  S
Fe59        O472   2.056       .  S
Fe59        O464   2.051       .  S
Fe59        O870   1.972       .  S
Fe60         O63   2.059       .  S
Fe60         O67   2.066       .  S
Fe60        O471   2.063       .  S
Fe60        O476   2.064       .  S
Fe60         O70   1.976       .  S
Fe61         O79   2.057       .  S
Fe61        O466   2.065       .  S
Fe61        O873   2.074   1_455  S
Fe61       O1262   2.058   1_455  S
Fe61         O70   1.979       .  S
O62       Fe1261   2.058   1_545  S
O62          C69   1.267       .  A
O63          C77   1.269       .  A
O64        Fe459   2.051   1_545  S
O64          C69   1.267       .  A
O65          C68   1.267       .  A
O66        Fe461   2.065   1_545  S
O66          C78   1.269       .  A
O67          C80   1.269       .  A
C68         C102   1.491       .  S
C68          O73   1.270       .  A
C69          C82   1.480       .  S
O70        Fe859   1.972   1_455  S
O71        Fe460   2.063   1_545  S
O71          C74   1.267       .  A
O72        Fe459   2.055   1_545  S
O72         C874   1.266       .  A
O73        Fe861   2.074       .  S
C74         C165   1.476       .  S
C74         O872   1.266   1_455  A
O75         C880   1.266       .  A
O76        Fe460   2.064   1_545  S
O76          C78   1.270       .  A
C77         C115   1.476       .  S
C77          O79   1.268       .  A
C78          C95   1.489       .  S
C80         C192   1.465       .  S
C80         O875   1.266   1_455  A
C81          C82   1.411       .  A
C81          C86   1.397       .  A
C81          F88   1.358       .  S
C82          C83   1.410       .  A
C83          C84   1.393       .  A
C83          F90   1.358       .  S
C84          C85   1.403       .  A
C84          F89   1.358       .  S
C85          C86   1.405       .  A
C86          F87   1.358       .  S
C91          C92   1.404       .  A
C91          C96   1.399       .  A
C91          F98   1.358       .  S
C92          C93   1.405       .  A
C93          C94   1.397       .  A
C93         F100   1.358       .  S
C94          C95   1.411       .  A
C94          F99   1.358       .  S
C95          C96   1.414       .  A
C96          F97   1.358       .  S
C101        C102   1.413       .  A
C101        C106   1.397       .  A
C101        F108   1.358       .  S
C102        C103   1.413       .  A
C103        C104   1.400       .  A
C103        F110   1.358       .  S
C104        C105   1.406       .  A
C104        F109   1.358       .  S
C105        C106   1.405       .  A
C106        F107   1.358       .  S
C111        C112   1.403       .  A
C111        C116   1.398       .  A
C111        F118   1.358       .  S
C112        C113   1.403       .  A
C113        C114   1.395       .  A
C113        F120   1.358       .  S
C114        C115   1.407       .  A
C114        F119   1.358       .  S
C115        C116   1.410       .  A
C116        F117   1.358       .  S
C121        C122   1.402       .  A
C121        C126   1.396       .  A
C121        F128   1.358       .  S
C122        C123   1.403       .  A
C123        C124   1.393       .  A
C123        F130   1.358       .  S
C124        C125   1.406       .  A
C124        F129   1.358       .  S
C125        C126   1.409       .  A
C126        F127   1.358       .  S
C131        C132   1.406       .  A
C131        C136   1.398       .  A
C131        F138   1.358       .  S
C132        C133   1.407       .  A
C133        C134   1.396       .  A
C133        F140   1.359       .  S
C134        C135   1.409       .  A
C134        F139   1.358       .  S
C135        C136   1.409       .  A
C136        F137   1.357       .  S
C141        C142   1.405       .  A
C141        C146   1.396       .  A
C141        F148   1.358       .  S
C142        C143   1.405       .  A
C143        C144   1.398       .  A
C143        F150   1.358       .  S
C144        C145   1.409       .  A
C144        F149   1.358       .  S
C145        C146   1.407       .  A
C146        F147   1.358       .  S
C151        C152   1.409       .  A
C151        C156   1.402       .  A
C151        F358   1.358       .  S
C152        C153   1.404       .  A
C153        C154   1.395       .  A
C153        F160   1.358       .  S
C154        C155   1.414       .  A
C154        F159   1.358       .  S
C155        C156   1.410       .  A
C156        F357   1.358       .  S
F157        C356   1.358   1_554  S
F158        C351   1.358   1_554  S
C161        C166   1.397       .  A
C161        C962   1.408       .  A
C161        F168   1.358       .  S
C162        C163   1.408       .  A
C162        C961   1.408   1_455  A
C163        C164   1.396       .  A
C163        F170   1.358       .  S
C164        C165   1.407       .  A
C164        F169   1.358       .  S
C165        C966   1.406   1_455  A
C166        C965   1.406       .  A
C166        F167   1.358       .  S
C171        C172   1.404       .  A
C171        C176   1.399       .  A
C171        F378   1.358       .  S
C172        C173   1.404       .  A
C173        C174   1.398       .  A
C173        F180   1.358       .  S
C174        C175   1.412       .  A
C174        F179   1.358       .  S
C175        C176   1.414       .  A
C176        F177   1.358       .  S
F178        C371   1.358       .  S
C181        C182   1.405       .  A
C181        C186   1.398       .  A
C181        F188   1.358       .  S
C182        C183   1.405       .  A
C183        C184   1.401       .  A
C183        F190   1.358       .  S
C184        C185   1.411       .  A
C184        F189   1.358       .  S
C185        C186   1.409       .  A
C186        F187   1.358       .  S
C191        C196   1.401       .  A
C191        C992   1.404       .  A
C191        F198   1.358       .  S
C192        C193   1.402       .  A
C192        C991   1.404   1_455  A
C193        C194   1.397       .  A
C193        F200   1.358       .  S
C194        C195   1.405   1_455  A
C194        F199   1.358       .  S
C195        C996   1.405       .  A
C196        C995   1.405       .  A
C196        F197   1.358       .  S
C201       C1002   1.405       .  A
C201        C206   1.402   1_655  A
C201        C395   1.473       .  S
C202       C1001   1.405       .  A
C202        H207   1.083       .  S
C203        C204   1.404       .  A
C203        C382   1.481       .  S
C204       C1005   1.402       .  A
C204        H208   1.085       .  S
C205       C1004   1.402   1_455  A
C205        C372   1.481       .  S
C206        H209   1.084       .  S
C210       C1011   1.408   1_455  A
C210        C215   1.403       .  A
C210        C362   1.484       .  S
C211       C1010   1.408       .  A
C211        H216   1.082       .  S
C212       C1013   1.405       .  A
C212        C352   1.486       .  S
C213       C1012   1.405       .  A
C213        C214   1.401   1_655  A
C213        H217   1.084       .  S
C214        C342   1.477       .  S
C215        H218   1.084       .  S
Fe219       O235   2.053       .  S
Fe219       O225   2.064       .  S
Fe219       O232   2.064       .  S
Fe219       O224   2.041       .  S
Fe219       O230   1.971       .  S
Fe220       O223   2.055       .  S
Fe220       O227   2.063       .  S
Fe220       O231   2.047       .  S
Fe220       O236   2.058       .  S
Fe220       O230   1.976       .  S
Fe221       O239   2.079       .  S
Fe221       O226   2.061       .  S
Fe221       O233   2.071       .  S
Fe221       O222   2.083       .  S
Fe221       O230   1.980       .  S
O222        C229   1.271       .  A
O223        C237   1.269       .  A
O224        C229   1.264       .  A
O225        C228   1.270       .  A
O226        C238   1.268       .  A
O227        C240   1.267       .  A
C228        C385   1.485       .  S
C228        O233   1.271       .  A
C229        C355   1.490       .  S
O231        C234   1.266       .  A
O232        C234   1.269       .  A
C234        C322   1.464       .  S
O235        C240   1.265       .  A
O236        C238   1.267       .  A
C237        C375   1.492       .  S
C237        O239   1.274       .  A
C238        C345   1.478       .  S
C240        C332   1.478       .  S
C241        C242   1.410       .  A
C241        C246   1.408       .  A
C241        C335   1.488       .  S
C242        C243   1.405       .  A
C242        H247   1.083       .  S
C243        C244   1.401       .  A
C243        C305   1.484       .  S
C244        C245   1.398       .  A
C244        H248   1.085       .  S
C245        C246   1.398       .  A
C245        C312   1.474       .  S
C246        H249   1.081       .  S
C250        C251   1.406       .  A
C250        C255   1.402       .  A
C250        C325   1.476       .  S
C251        C252   1.402       .  A
C251        H256   1.084       .  S
C252        C253   1.401       .  A
C252        C292   1.480       .  S
C253        C254   1.401       .  A
C253        H257   1.084       .  S
C254        C255   1.398       .  A
C254        C285   1.476       .  S
C255        H258   1.083       .  S
Fe259       O275   2.058       .  S
Fe259       O265   2.055       .  S
Fe259       O672   2.057       .  S
Fe259       O664   2.051       .  S
Fe259      O1070   1.972       .  S
Fe260       O263   2.059       .  S
Fe260       O267   2.066       .  S
Fe260       O671   2.064       .  S
Fe260       O676   2.064       .  S
Fe260       O270   1.977       .  S
Fe261       O279   2.058       .  S
Fe261       O666   2.066       .  S
Fe261      O1073   2.074   1_455  S
Fe261      O1462   2.059   1_455  S
Fe261       O270   1.978       .  S
O262      Fe1461   2.059   1_545  S
O262        C269   1.268       .  A
O263        C277   1.269       .  A
O264       Fe659   2.051   1_545  S
O264        C269   1.267       .  A
O265        C268   1.267       .  A
O266       Fe661   2.066   1_545  S
O266        C278   1.269       .  A
O267        C280   1.269       .  A
C268        C302   1.492       .  S
C268        O273   1.270       .  A
C269        C282   1.480       .  S
O270      Fe1059   1.972   1_455  S
O271       Fe660   2.064   1_545  S
O271        C274   1.268       .  A
O272       Fe659   2.057   1_545  S
O272       C1074   1.267       .  A
O273      Fe1061   2.074       .  S
C274        C365   1.477       .  S
C274       O1072   1.267   1_455  A
O275       C1080   1.266       .  A
O276       Fe660   2.064   1_545  S
O276        C278   1.270       .  A
C277        C315   1.477       .  S
C277        O279   1.268       .  A
C278        C295   1.489       .  S
C280        C392   1.464       .  S
C280       O1075   1.266   1_455  A
C281        C282   1.411       .  A
C281        C286   1.397       .  A
C281        F288   1.358       .  S
C282        C283   1.410       .  A
C283        C284   1.393       .  A
C283        F290   1.358       .  S
C284        C285   1.403       .  A
C284        F289   1.358       .  S
C285        C286   1.405       .  A
C286        F287   1.358       .  S
C291        C292   1.404       .  A
C291        C296   1.399       .  A
C291        F298   1.358       .  S
C292        C293   1.405       .  A
C293        C294   1.397       .  A
C293        F300   1.358       .  S
C294        C295   1.411       .  A
C294        F299   1.358       .  S
C295        C296   1.414       .  A
C296        F297   1.358       .  S
C301        C302   1.413       .  A
C301        C306   1.397       .  A
C301        F308   1.358       .  S
C302        C303   1.413       .  A
C303        C304   1.401       .  A
C303        F310   1.358       .  S
C304        C305   1.406       .  A
C304        F309   1.358       .  S
C305        C306   1.405       .  A
C306        F307   1.358       .  S
C311        C312   1.403       .  A
C311        C316   1.398       .  A
C311        F318   1.358       .  S
C312        C313   1.403       .  A
C313        C314   1.396       .  A
C313        F320   1.358       .  S
C314        C315   1.407       .  A
C314        F319   1.358       .  S
C315        C316   1.410       .  A
C316        F317   1.358       .  S
C321        C322   1.402       .  A
C321        C326   1.396       .  A
C321        F328   1.358       .  S
C322        C323   1.403       .  A
C323        C324   1.394       .  A
C323        F330   1.358       .  S
C324        C325   1.406       .  A
C324        F329   1.358       .  S
C325        C326   1.409       .  A
C326        F327   1.358       .  S
C331        C332   1.406       .  A
C331        C336   1.398       .  A
C331        F338   1.358       .  S
C332        C333   1.407       .  A
C333        C334   1.396       .  A
C333        F340   1.359       .  S
C334        C335   1.409       .  A
C334        F339   1.358       .  S
C335        C336   1.410       .  A
C336        F337   1.357       .  S
C341        C342   1.405       .  A
C341        C346   1.396       .  A
C341        F348   1.358   1_556  S
C342        C343   1.405       .  A
C343        C344   1.398       .  A
C343        F350   1.358       .  S
C344        C345   1.409       .  A
C344        F349   1.358       .  S
C345        C346   1.407       .  A
C346        F347   1.358   1_556  S
C351        C352   1.409       .  A
C351        C356   1.402       .  A
C352        C353   1.404       .  A
C353        C354   1.395       .  A
C353        F360   1.358       .  S
C354        C355   1.414       .  A
C354        F359   1.358       .  S
C355        C356   1.410       .  A
C361       C1162   1.408       .  A
C361        C366   1.397       .  A
C361        F368   1.358       .  S
C362       C1161   1.408   1_455  A
C362        C363   1.409       .  A
C363        C364   1.397       .  A
C363        F370   1.358       .  S
C364        C365   1.407       .  A
C364        F369   1.358       .  S
C365       C1166   1.406   1_455  A
C366       C1165   1.406       .  A
C366        F367   1.358       .  S
C371        C372   1.404       .  A
C371        C376   1.399       .  A
C372        C373   1.404       .  A
C373        C374   1.398       .  A
C373        F380   1.358   1_556  S
C374        C375   1.412       .  A
C374        F379   1.358   1_556  S
C375        C376   1.414       .  A
C376        F377   1.358       .  S
C381        C382   1.405       .  A
C381        C386   1.398       .  A
C381        F388   1.358       .  S
C382        C383   1.405   1_556  A
C383        C384   1.402   1_554  A
C383        F390   1.358       .  S
C384        C385   1.411       .  A
C384        F389   1.358   1_556  S
C385        C386   1.409       .  A
C386        F387   1.358       .  S
C391       C1192   1.404       .  A
C391        C396   1.401       .  A
C391        F398   1.358       .  S
C392       C1191   1.404   1_455  A
C392        C393   1.402       .  A
C393        C394   1.397       .  A
C393        F400   1.358       .  S
C394        C395   1.404   1_455  A
C394        F399   1.358       .  S
C395       C1196   1.405       .  A
C396       C1195   1.405       .  A
C396        F397   1.358       .  S
C401       C1202   1.406       .  A
C401        C406   1.402   1_655  A
C401        C595   1.474       .  S
C402       C1201   1.406       .  A
C402        C603   1.405   1_554  A
C402        H407   1.083       .  S
C403        C602   1.405       .  A
C403        C404   1.404       .  A
C403        C582   1.481       .  S
C404       C1205   1.402       .  A
C404        H408   1.085       .  S
C405       C1204   1.402   1_455  A
C405        C606   1.401       .  A
C405        C572   1.481       .  S
C406        C605   1.401   1_554  A
C406        H409   1.084       .  S
C410       C1211   1.408   1_455  A
C410        C415   1.403       .  A
C410        C562   1.483       .  S
C411       C1210   1.408       .  A
C411        C612   1.404   1_554  A
C411        H416   1.082       .  S
C412        C611   1.405       .  A
C412       C1213   1.405       .  A
C412        C552   1.486       .  S
C413       C1212   1.405       .  A
C413        C414   1.400   1_655  A
C413        H417   1.084       .  S
C414        C615   1.399       .  A
C414        C542   1.478       .  S
C415        C614   1.398   1_554  A
C415        H418   1.084       .  S
Fe419       O435   2.053       .  S
Fe419       O425   2.063       .  S
Fe419       O432   2.063       .  S
Fe419       O424   2.041       .  S
Fe419       O430   1.970       .  S
Fe420       O423   2.056       .  S
Fe420       O427   2.062       .  S
Fe420       O431   2.046       .  S
Fe420       O436   2.058       .  S
Fe420       O430   1.976       .  S
Fe421       O439   2.079       .  S
Fe421       O426   2.061       .  S
Fe421       O433   2.071       .  S
Fe421       O422   2.083       .  S
Fe421       O430   1.979       .  S
O422        C429   1.271       .  A
O423        C437   1.269       .  A
O424        C429   1.264       .  A
O425        C428   1.270       .  A
O426        C438   1.268       .  A
O427        C440   1.267       .  A
C428        C585   1.484       .  S
C428        O433   1.271       .  A
C429        C555   1.490       .  S
O431        C434   1.267       .  A
O432        C434   1.269       .  A
C434        C522   1.463       .  S
O435        C440   1.265       .  A
O436        C438   1.267       .  A
C437        C575   1.491       .  S
C437        O439   1.273       .  A
C438        C545   1.477       .  S
C440        C532   1.477       .  S
C441        C442   1.409       .  A
C441        C446   1.407       .  A
C441        C535   1.487       .  S
C442        C443   1.405       .  A
C442        H447   1.083       .  S
C443        C444   1.401       .  A
C443        C505   1.484       .  S
C444        C445   1.398       .  A
C444        H448   1.085       .  S
C445        C446   1.398       .  A
C445        C512   1.474       .  S
C446        H449   1.082       .  S
C450        C451   1.406       .  A
C450        C455   1.402       .  A
C450        C525   1.476       .  S
C451        C452   1.401       .  A
C451        H456   1.084       .  S
C452        C453   1.401       .  A
C452        C492   1.480       .  S
C453        C454   1.401       .  A
C453        H457   1.084       .  S
C454        C455   1.398       .  A
C454        C485   1.475       .  S
C455        H458   1.083       .  S
Fe459       O475   2.058       .  S
Fe459       O465   2.053       .  S
Fe459      O1270   1.972       .  S
Fe460       O463   2.059       .  S
Fe460       O467   2.066       .  S
Fe460       O470   1.977       .  S
Fe461       O479   2.057       .  S
Fe461      O1273   2.074   1_455  S
Fe461       O862   2.058   1_465  S
Fe461       O470   1.979       .  S
O462       Fe861   2.058       .  S
O462        C469   1.267       .  A
O463        C477   1.269       .  A
O464        C469   1.267       .  A
O465        C468   1.267       .  A
O466        C478   1.269       .  A
O467        C480   1.269       .  A
C468        C502   1.491       .  S
C468        O473   1.270       .  A
C469        C482   1.480       .  S
O470      Fe1259   1.972   1_455  S
O471        C474   1.268       .  A
O472       C1274   1.266       .  A
O473      Fe1261   2.074       .  S
C474        C565   1.476       .  S
C474       O1272   1.266   1_455  A
O475       C1280   1.266       .  A
O476        C478   1.270       .  A
C477        C515   1.477       .  S
C477        O479   1.268       .  A
C478        C495   1.489       .  S
C480        C592   1.465       .  S
C480       O1275   1.266   1_455  A
C481        C482   1.411       .  A
C481        C486   1.397       .  A
C481        F488   1.358       .  S
C482        C483   1.410       .  A
C483        C484   1.393       .  A
C483        F490   1.358       .  S
C484        C485   1.403       .  A
C484        F489   1.358       .  S
C485        C486   1.405       .  A
C486        F487   1.358       .  S
C491        C492   1.404       .  A
C491        C496   1.399       .  A
C491        F498   1.358       .  S
C492        C493   1.405       .  A
C493        C494   1.397       .  A
C493        F500   1.358       .  S
C494        C495   1.411       .  A
C494        F499   1.358       .  S
C495        C496   1.414       .  A
C496        F497   1.358       .  S
C501        C502   1.413       .  A
C501        C506   1.397       .  A
C501        F508   1.358       .  S
C502        C503   1.413       .  A
C503        C504   1.400       .  A
C503        F510   1.358       .  S
C504        C505   1.406       .  A
C504        F509   1.358       .  S
C505        C506   1.405       .  A
C506        F507   1.358       .  S
C511        C512   1.403       .  A
C511        C516   1.398       .  A
C511        F518   1.358       .  S
C512        C513   1.403       .  A
C513        C514   1.395       .  A
C513        F520   1.358       .  S
C514        C515   1.407       .  A
C514        F519   1.358       .  S
C515        C516   1.410       .  A
C516        F517   1.358       .  S
C521        C522   1.402       .  A
C521        C526   1.396       .  A
C521        F528   1.358       .  S
C522        C523   1.403       .  A
C523        C524   1.393       .  A
C523        F530   1.358       .  S
C524        C525   1.406       .  A
C524        F529   1.358       .  S
C525        C526   1.409       .  A
C526        F527   1.358       .  S
C531        C532   1.406       .  A
C531        C536   1.398       .  A
C531        F538   1.358       .  S
C532        C533   1.407       .  A
C533        C534   1.396       .  A
C533        F540   1.359       .  S
C534        C535   1.409       .  A
C534        F539   1.358       .  S
C535        C536   1.410       .  A
C536        F537   1.357       .  S
C541        C542   1.405       .  A
C541        C546   1.396       .  A
C541        F548   1.358       .  S
C542        C543   1.405       .  A
C543        C544   1.398       .  A
C543        F550   1.358       .  S
C544        C545   1.409       .  A
C544        F549   1.358       .  S
C545        C546   1.407       .  A
C546        F547   1.358       .  S
C551        C552   1.409       .  A
C551        C556   1.402       .  A
C551        F758   1.358       .  S
C552        C553   1.404       .  A
C553        C554   1.395       .  A
C553        F560   1.358       .  S
C554        C555   1.413       .  A
C554        F559   1.358       .  S
C555        C556   1.410       .  A
C556        F757   1.358       .  S
F557        C756   1.358   1_554  S
F558        C751   1.358   1_554  S
C561       C1362   1.408       .  A
C561        C566   1.397       .  A
C561        F568   1.358       .  S
C562       C1361   1.408   1_455  A
C562        C563   1.408       .  A
C563        C564   1.396       .  A
C563        F570   1.358       .  S
C564        C565   1.407       .  A
C564        F569   1.358       .  S
C565       C1366   1.406   1_455  A
C566       C1365   1.406       .  A
C566        F567   1.358       .  S
C571        C572   1.404       .  A
C571        C576   1.399       .  A
C571        F778   1.358       .  S
C572        C573   1.404       .  A
C573        C574   1.398       .  A
C573        F580   1.358       .  S
C574        C575   1.412       .  A
C574        F579   1.358       .  S
C575        C576   1.414       .  A
C576        F577   1.358       .  S
F578        C771   1.358       .  S
C581        C582   1.405       .  A
C581        C586   1.398       .  A
C581        F588   1.358       .  S
C582        C583   1.405       .  A
C583        C584   1.401       .  A
C583        F590   1.358       .  S
C584        C585   1.411       .  A
C584        F589   1.358       .  S
C585        C586   1.409       .  A
C586        F587   1.358       .  S
C591       C1392   1.404       .  A
C591        C596   1.401       .  A
C591        F598   1.358       .  S
C592       C1391   1.403   1_455  A
C592        C593   1.402       .  A
C593        C594   1.397       .  A
C593        F600   1.358       .  S
C594        C595   1.405   1_455  A
C594        F599   1.358       .  S
C595       C1396   1.405       .  A
C596       C1395   1.405       .  A
C596        F597   1.358       .  S
C601       C1402   1.405       .  A
C601        C606   1.402   1_655  A
C601        C795   1.473       .  S
C602       C1401   1.405       .  A
C602        H607   1.083       .  S
C603        C604   1.404       .  A
C603        C782   1.481       .  S
C604       C1405   1.402       .  A
C604        H608   1.085       .  S
C605       C1404   1.402   1_455  A
C605        C772   1.481       .  S
C606        H609   1.084       .  S
C610       C1411   1.408   1_455  A
C610        C615   1.403       .  A
C610        C762   1.484       .  S
C611       C1410   1.408       .  A
C611        H616   1.082       .  S
C612       C1413   1.405       .  A
C612        C752   1.486       .  S
C613       C1412   1.405       .  A
C613        C614   1.401   1_655  A
C613        H617   1.084       .  S
C614        C742   1.477       .  S
C615        H618   1.084       .  S
Fe619       O635   2.053       .  S
Fe619       O625   2.064       .  S
Fe619       O632   2.064       .  S
Fe619       O624   2.041       .  S
Fe619       O630   1.970       .  S
Fe620       O623   2.055       .  S
Fe620       O627   2.063       .  S
Fe620       O631   2.047       .  S
Fe620       O636   2.058       .  S
Fe620       O630   1.976       .  S
Fe621       O639   2.079       .  S
Fe621       O626   2.061       .  S
Fe621       O633   2.071       .  S
Fe621       O622   2.083       .  S
Fe621       O630   1.980       .  S
O622        C629   1.271       .  A
O623        C637   1.269       .  A
O624        C629   1.264       .  A
O625        C628   1.270       .  A
O626        C638   1.268       .  A
O627        C640   1.267       .  A
C628        C785   1.485       .  S
C628        O633   1.271       .  A
C629        C755   1.490       .  S
O631        C634   1.266       .  A
O632        C634   1.269       .  A
C634        C722   1.464       .  S
O635        C640   1.265       .  A
O636        C638   1.267       .  A
C637        C775   1.492       .  S
C637        O639   1.274       .  A
C638        C745   1.477       .  S
C640        C732   1.478       .  S
C641        C642   1.410       .  A
C641        C646   1.408       .  A
C641        C735   1.488       .  S
C642        C643   1.405       .  A
C642        H647   1.083       .  S
C643        C644   1.401       .  A
C643        C705   1.484       .  S
C644        C645   1.398       .  A
C644        H648   1.085       .  S
C645        C646   1.398       .  A
C645        C712   1.474       .  S
C646        H649   1.081       .  S
C650        C651   1.406       .  A
C650        C655   1.402       .  A
C650        C725   1.476       .  S
C651        C652   1.402       .  A
C651        H656   1.084       .  S
C652        C653   1.401       .  A
C652        C692   1.480       .  S
C653        C654   1.401       .  A
C653        H657   1.084       .  S
C654        C655   1.398       .  A
C654        C685   1.476       .  S
C655        H658   1.083       .  S
Fe659       O675   2.058       .  S
Fe659       O665   2.054       .  S
Fe659      O1470   1.972       .  S
Fe660       O663   2.059       .  S
Fe660       O667   2.066       .  S
Fe660       O670   1.977       .  S
Fe661       O679   2.058       .  S
Fe661      O1473   2.074   1_455  S
Fe661      O1062   2.059   1_465  S
Fe661       O670   1.978       .  S
O662      Fe1061   2.059       .  S
O662        C669   1.268       .  A
O663        C677   1.269       .  A
O664        C669   1.267       .  A
O665        C668   1.267       .  A
O666        C678   1.269       .  A
O667        C680   1.269       .  A
C668        C702   1.492       .  S
C668        O673   1.270       .  A
C669        C682   1.480       .  S
O670      Fe1459   1.972   1_455  S
O671        C674   1.268       .  A
O672       C1474   1.267       .  A
O673      Fe1461   2.074       .  S
C674        C765   1.477       .  S
C674       O1472   1.267   1_455  A
O675       C1480   1.266       .  A
O676        C678   1.270       .  A
C677        C715   1.477       .  S
C677        O679   1.268       .  A
C678        C695   1.489       .  S
C680        C792   1.464       .  S
C680       O1475   1.266   1_455  A
C681        C682   1.411       .  A
C681        C686   1.397       .  A
C681        F688   1.358       .  S
C682        C683   1.410       .  A
C683        C684   1.393       .  A
C683        F690   1.358       .  S
C684        C685   1.403       .  A
C684        F689   1.358       .  S
C685        C686   1.405       .  A
C686        F687   1.358       .  S
C691        C692   1.404       .  A
C691        C696   1.399       .  A
C691        F698   1.358       .  S
C692        C693   1.405       .  A
C693        C694   1.397       .  A
C693        F700   1.358       .  S
C694        C695   1.411       .  A
C694        F699   1.358       .  S
C695        C696   1.414       .  A
C696        F697   1.358       .  S
C701        C702   1.413       .  A
C701        C706   1.397       .  A
C701        F708   1.358       .  S
C702        C703   1.413       .  A
C703        C704   1.401       .  A
C703        F710   1.358       .  S
C704        C705   1.406       .  A
C704        F709   1.358       .  S
C705        C706   1.405       .  A
C706        F707   1.358       .  S
C711        C712   1.403       .  A
C711        C716   1.399       .  A
C711        F718   1.358       .  S
C712        C713   1.403       .  A
C713        C714   1.396       .  A
C713        F720   1.358       .  S
C714        C715   1.407       .  A
C714        F719   1.358       .  S
C715        C716   1.410       .  A
C716        F717   1.358       .  S
C721        C722   1.402       .  A
C721        C726   1.396       .  A
C721        F728   1.358       .  S
C722        C723   1.403       .  A
C723        C724   1.394       .  A
C723        F730   1.358       .  S
C724        C725   1.406       .  A
C724        F729   1.358       .  S
C725        C726   1.409       .  A
C726        F727   1.358       .  S
C731        C732   1.406       .  A
C731        C736   1.398       .  A
C731        F738   1.358       .  S
C732        C733   1.407       .  A
C733        C734   1.396       .  A
C733        F740   1.359       .  S
C734        C735   1.409       .  A
C734        F739   1.358       .  S
C735        C736   1.410       .  A
C736        F737   1.357       .  S
C741        C742   1.405       .  A
C741        C746   1.396       .  A
C741        F748   1.358   1_556  S
C742        C743   1.405       .  A
C743        C744   1.398       .  A
C743        F750   1.358       .  S
C744        C745   1.409       .  A
C744        F749   1.358       .  S
C745        C746   1.407       .  A
C746        F747   1.358   1_556  S
C751        C752   1.409       .  A
C751        C756   1.402       .  A
C752        C753   1.404       .  A
C753        C754   1.395       .  A
C753        F760   1.358       .  S
C754        C755   1.414       .  A
C754        F759   1.358       .  S
C755        C756   1.410       .  A
C761       C1562   1.408       .  A
C761        C766   1.397       .  A
C761        F768   1.358       .  S
C762       C1561   1.408   1_455  A
C762        C763   1.409       .  A
C763        C764   1.397       .  A
C763        F770   1.358       .  S
C764        C765   1.407       .  A
C764        F769   1.358       .  S
C765       C1566   1.406   1_455  A
C766       C1565   1.406       .  A
C766        F767   1.358       .  S
C771        C772   1.404       .  A
C771        C776   1.399       .  A
C772        C773   1.404       .  A
C773        C774   1.398       .  A
C773        F780   1.358   1_556  S
C774        C775   1.412       .  A
C774        F779   1.358   1_556  S
C775        C776   1.414       .  A
C776        F777   1.358       .  S
C781        C782   1.405       .  A
C781        C786   1.398       .  A
C781        F788   1.358       .  S
C782        C783   1.405   1_556  A
C783        C784   1.402   1_554  A
C783        F790   1.358       .  S
C784        C785   1.411       .  A
C784        F789   1.358   1_556  S
C785        C786   1.409       .  A
C786        F787   1.358       .  S
C791       C1592   1.404       .  A
C791        C796   1.401       .  A
C791        F798   1.358       .  S
C792       C1591   1.404   1_455  A
C792        C793   1.402       .  A
C793        C794   1.397       .  A
C793        F800   1.358       .  S
C794        C795   1.404   1_455  A
C794        F799   1.358       .  S
C795       C1596   1.405       .  A
C796       C1595   1.405       .  A
C796        F797   1.358       .  S
C801        C806   1.402       .  A
C801        C995   1.474       .  S
C802       C1003   1.405   1_554  A
C802        H807   1.083       .  S
C803       C1002   1.405       .  A
C803        C804   1.404       .  A
C803        C982   1.481       .  S
C804        H808   1.085       .  S
C805       C1006   1.400       .  A
C805        C972   1.481       .  S
C806       C1005   1.401   1_554  A
C806        H809   1.084       .  S
C810        C815   1.403       .  A
C810        C962   1.483       .  S
C811       C1012   1.404   1_554  A
C811        H816   1.082       .  S
C812       C1011   1.405       .  A
C812        C952   1.486       .  S
C813        C814   1.400       .  A
C813        H817   1.084       .  S
C814       C1015   1.399       .  A
C814        C942   1.478       .  S
C815       C1014   1.398   1_554  A
C815        H818   1.084       .  S
Fe819       O835   2.053       .  S
Fe819       O825   2.063       .  S
Fe819       O832   2.063       .  S
Fe819       O824   2.041       .  S
Fe819       O830   1.971       .  S
Fe820       O823   2.055       .  S
Fe820       O827   2.062       .  S
Fe820       O831   2.046       .  S
Fe820       O836   2.058       .  S
Fe820       O830   1.976       .  S
Fe821       O839   2.079       .  S
Fe821       O826   2.061       .  S
Fe821       O833   2.071       .  S
Fe821       O822   2.083       .  S
Fe821       O830   1.979       .  S
O822        C829   1.271       .  A
O823        C837   1.269       .  A
O824        C829   1.264       .  A
O825        C828   1.270       .  A
O826        C838   1.268       .  A
O827        C840   1.267       .  A
C828        C985   1.484       .  S
C828        O833   1.271       .  A
C829        C955   1.490       .  S
O831        C834   1.266       .  A
O832        C834   1.269       .  A
C834        C922   1.463       .  S
O835        C840   1.265       .  A
O836        C838   1.267       .  A
C837        C975   1.491       .  S
C837        O839   1.273       .  A
C838        C945   1.477       .  S
C840        C932   1.477       .  S
C841        C842   1.409       .  A
C841        C846   1.407       .  A
C841        C935   1.487       .  S
C842        C843   1.405       .  A
C842        H847   1.083       .  S
C843        C844   1.401       .  A
C843        C905   1.484       .  S
C844        C845   1.398       .  A
C844        H848   1.085       .  S
C845        C846   1.398       .  A
C845        C912   1.473       .  S
C846        H849   1.082       .  S
C850        C851   1.406       .  A
C850        C855   1.402       .  A
C850        C925   1.476       .  S
C851        C852   1.401       .  A
C851        H856   1.084       .  S
C852        C853   1.401       .  A
C852        C892   1.480       .  S
C853        C854   1.401       .  A
C853        H857   1.084       .  S
C854        C855   1.398       .  A
C854        C885   1.475       .  S
C855        H858   1.083       .  S
Fe859       O875   2.058       .  S
Fe859       O865   2.053       .  S
Fe859      O1272   2.056       .  S
Fe859      O1264   2.051       .  S
Fe860       O863   2.059       .  S
Fe860       O867   2.066       .  S
Fe860      O1271   2.063       .  S
Fe860      O1276   2.064       .  S
Fe860       O870   1.977       .  S
Fe861       O879   2.057       .  S
Fe861      O1266   2.065       .  S
Fe861       O870   1.979       .  S
O862        C869   1.267       .  A
O863        C877   1.269       .  A
O864      Fe1259   2.051   1_545  S
O864        C869   1.267       .  A
O865        C868   1.267       .  A
O866      Fe1261   2.065   1_545  S
O866        C878   1.269       .  A
O867        C880   1.269       .  A
C868        C902   1.491       .  S
C868        O873   1.270       .  A
C869        C882   1.480       .  S
O871      Fe1260   2.063   1_545  S
O871        C874   1.268       .  A
O872      Fe1259   2.055   1_545  S
C874        C965   1.476       .  S
O876      Fe1260   2.064   1_545  S
O876        C878   1.270       .  A
C877        C915   1.477       .  S
C877        O879   1.268       .  A
C878        C895   1.489       .  S
C880        C992   1.465       .  S
C881        C882   1.411       .  A
C881        C886   1.397       .  A
C881        F888   1.358       .  S
C882        C883   1.410       .  A
C883        C884   1.393       .  A
C883        F890   1.358       .  S
C884        C885   1.403       .  A
C884        F889   1.358       .  S
C885        C886   1.405       .  A
C886        F887   1.358       .  S
C891        C892   1.404       .  A
C891        C896   1.399       .  A
C891        F898   1.358       .  S
C892        C893   1.405       .  A
C893        C894   1.397       .  A
C893        F900   1.358       .  S
C894        C895   1.411       .  A
C894        F899   1.358       .  S
C895        C896   1.414       .  A
C896        F897   1.358       .  S
C901        C902   1.413       .  A
C901        C906   1.397       .  A
C901        F908   1.358       .  S
C902        C903   1.413       .  A
C903        C904   1.400       .  A
C903        F910   1.358       .  S
C904        C905   1.406       .  A
C904        F909   1.358       .  S
C905        C906   1.405       .  A
C906        F907   1.358       .  S
C911        C912   1.403       .  A
C911        C916   1.398       .  A
C911        F918   1.358       .  S
C912        C913   1.403       .  A
C913        C914   1.395       .  A
C913        F920   1.358       .  S
C914        C915   1.407       .  A
C914        F919   1.358       .  S
C915        C916   1.410       .  A
C916        F917   1.358       .  S
C921        C922   1.402       .  A
C921        C926   1.396       .  A
C921        F928   1.358       .  S
C922        C923   1.403       .  A
C923        C924   1.393       .  A
C923        F930   1.358       .  S
C924        C925   1.406       .  A
C924        F929   1.358       .  S
C925        C926   1.409       .  A
C926        F927   1.358       .  S
C931        C932   1.406       .  A
C931        C936   1.398       .  A
C931        F938   1.358       .  S
C932        C933   1.407       .  A
C933        C934   1.396       .  A
C933        F940   1.359       .  S
C934        C935   1.409       .  A
C934        F939   1.358       .  S
C935        C936   1.410       .  A
C936        F937   1.357       .  S
C941        C942   1.405       .  A
C941        C946   1.396       .  A
C941        F948   1.358       .  S
C942        C943   1.405       .  A
C943        C944   1.398       .  A
C943        F950   1.358       .  S
C944        C945   1.409       .  A
C944        F949   1.358       .  S
C945        C946   1.407       .  A
C946        F947   1.358       .  S
C951        C952   1.409       .  A
C951        C956   1.402       .  A
C951       F1158   1.358       .  S
C952        C953   1.404       .  A
C953        C954   1.395       .  A
C953        F960   1.358       .  S
C954        C955   1.414       .  A
C954        F959   1.358       .  S
C955        C956   1.410       .  A
C956       F1157   1.358       .  S
F957       C1156   1.358   1_554  S
F958       C1151   1.358   1_554  S
C961        C966   1.397       .  A
C961        F968   1.358       .  S
C962        C963   1.408       .  A
C963        C964   1.396       .  A
C963        F970   1.358       .  S
C964        C965   1.407       .  A
C964        F969   1.358       .  S
C966        F967   1.358       .  S
C971        C972   1.404       .  A
C971        C976   1.399       .  A
C971       F1178   1.358       .  S
C972        C973   1.404       .  A
C973        C974   1.398       .  A
C973        F980   1.358       .  S
C974        C975   1.412       .  A
C974        F979   1.358       .  S
C975        C976   1.414       .  A
C976        F977   1.358       .  S
F978       C1171   1.358       .  S
C981        C982   1.405       .  A
C981        C986   1.398       .  A
C981        F988   1.358       .  S
C982        C983   1.405       .  A
C983        C984   1.401       .  A
C983        F990   1.358       .  S
C984        C985   1.411       .  A
C984        F989   1.358       .  S
C985        C986   1.409       .  A
C986        F987   1.358       .  S
C991        C996   1.401       .  A
C991        F998   1.358       .  S
C992        C993   1.402       .  A
C993        C994   1.397       .  A
C993       F1000   1.358       .  S
C994        C995   1.405       .  A
C994        F999   1.358       .  S
C996        F997   1.358       .  S
C1001      C1006   1.402       .  A
C1001      C1195   1.473       .  S
C1002      H1007   1.083       .  S
C1003      C1004   1.404       .  A
C1003      C1182   1.481       .  S
C1004      H1008   1.085       .  S
C1005      C1172   1.481       .  S
C1006      H1009   1.084       .  S
C1010      C1015   1.403       .  A
C1010      C1162   1.484       .  S
C1011      H1016   1.082       .  S
C1012      C1152   1.486       .  S
C1013      C1014   1.401       .  A
C1013      H1017   1.084       .  S
C1014      C1142   1.477       .  S
C1015      H1018   1.084       .  S
Fe1019     O1035   2.053       .  S
Fe1019     O1025   2.064       .  S
Fe1019     O1032   2.064       .  S
Fe1019     O1024   2.041       .  S
Fe1019     O1030   1.971       .  S
Fe1020     O1023   2.055       .  S
Fe1020     O1027   2.063       .  S
Fe1020     O1031   2.047       .  S
Fe1020     O1036   2.058       .  S
Fe1020     O1030   1.976       .  S
Fe1021     O1039   2.079       .  S
Fe1021     O1026   2.061       .  S
Fe1021     O1033   2.071       .  S
Fe1021     O1022   2.083       .  S
Fe1021     O1030   1.980       .  S
O1022      C1029   1.271       .  A
O1023      C1037   1.269       .  A
O1024      C1029   1.264       .  A
O1025      C1028   1.270       .  A
O1026      C1038   1.268       .  A
O1027      C1040   1.267       .  A
C1028      C1185   1.485       .  S
C1028      O1033   1.271       .  A
C1029      C1155   1.490       .  S
O1031      C1034   1.266       .  A
O1032      C1034   1.269       .  A
C1034      C1122   1.464       .  S
O1035      C1040   1.265       .  A
O1036      C1038   1.267       .  A
C1037      C1175   1.491       .  S
C1037      O1039   1.274       .  A
C1038      C1145   1.478       .  S
C1040      C1132   1.478       .  S
C1041      C1042   1.410       .  A
C1041      C1046   1.408       .  A
C1041      C1135   1.488       .  S
C1042      C1043   1.405       .  A
C1042      H1047   1.083       .  S
C1043      C1044   1.401       .  A
C1043      C1105   1.484       .  S
C1044      C1045   1.398       .  A
C1044      H1048   1.085       .  S
C1045      C1046   1.398       .  A
C1045      C1112   1.474       .  S
C1046      H1049   1.081       .  S
C1050      C1051   1.406       .  A
C1050      C1055   1.402       .  A
C1050      C1125   1.476       .  S
C1051      C1052   1.402       .  A
C1051      H1056   1.084       .  S
C1052      C1053   1.401       .  A
C1052      C1092   1.480       .  S
C1053      C1054   1.401       .  A
C1053      H1057   1.084       .  S
C1054      C1055   1.398       .  A
C1054      C1085   1.476       .  S
C1055      H1058   1.083       .  S
Fe1059     O1075   2.058       .  S
Fe1059     O1065   2.055       .  S
Fe1059     O1472   2.057       .  S
Fe1059     O1464   2.051       .  S
Fe1060     O1063   2.059       .  S
Fe1060     O1067   2.066       .  S
Fe1060     O1471   2.064       .  S
Fe1060     O1476   2.064       .  S
Fe1060     O1070   1.977       .  S
Fe1061     O1079   2.058       .  S
Fe1061     O1466   2.066       .  S
Fe1061     O1070   1.978       .  S
O1062      C1069   1.268       .  A
O1063      C1077   1.269       .  A
O1064     Fe1459   2.051   1_545  S
O1064      C1069   1.267       .  A
O1065      C1068   1.267       .  A
O1066     Fe1461   2.066   1_545  S
O1066      C1078   1.269       .  A
O1067      C1080   1.269       .  A
C1068      C1102   1.492       .  S
C1068      O1073   1.270       .  A
C1069      C1082   1.480       .  S
O1071     Fe1460   2.064   1_545  S
O1071      C1074   1.268       .  A
O1072     Fe1459   2.057   1_545  S
C1074      C1165   1.477       .  S
O1076     Fe1460   2.065   1_545  S
O1076      C1078   1.270       .  A
C1077      C1115   1.477       .  S
C1077      O1079   1.268       .  A
C1078      C1095   1.489       .  S
C1080      C1192   1.464       .  S
C1081      C1082   1.411       .  A
C1081      C1086   1.397       .  A
C1081      F1088   1.358       .  S
C1082      C1083   1.410       .  A
C1083      C1084   1.393       .  A
C1083      F1090   1.358       .  S
C1084      C1085   1.403       .  A
C1084      F1089   1.358       .  S
C1085      C1086   1.405       .  A
C1086      F1087   1.358       .  S
C1091      C1092   1.404       .  A
C1091      C1096   1.399       .  A
C1091      F1098   1.358       .  S
C1092      C1093   1.405       .  A
C1093      C1094   1.397       .  A
C1093      F1100   1.358       .  S
C1094      C1095   1.411       .  A
C1094      F1099   1.358       .  S
C1095      C1096   1.414       .  A
C1096      F1097   1.358       .  S
C1101      C1102   1.413       .  A
C1101      C1106   1.397       .  A
C1101      F1108   1.358       .  S
C1102      C1103   1.413       .  A
C1103      C1104   1.401       .  A
C1103      F1110   1.358       .  S
C1104      C1105   1.406       .  A
C1104      F1109   1.358       .  S
C1105      C1106   1.405       .  A
C1106      F1107   1.358       .  S
C1111      C1112   1.403       .  A
C1111      C1116   1.399       .  A
C1111      F1118   1.358       .  S
C1112      C1113   1.403       .  A
C1113      C1114   1.396       .  A
C1113      F1120   1.358       .  S
C1114      C1115   1.407       .  A
C1114      F1119   1.358       .  S
C1115      C1116   1.410       .  A
C1116      F1117   1.358       .  S
C1121      C1122   1.402       .  A
C1121      C1126   1.396       .  A
C1121      F1128   1.358       .  S
C1122      C1123   1.403       .  A
C1123      C1124   1.394       .  A
C1123      F1130   1.358       .  S
C1124      C1125   1.406       .  A
C1124      F1129   1.358       .  S
C1125      C1126   1.409       .  A
C1126      F1127   1.358       .  S
C1131      C1132   1.406       .  A
C1131      C1136   1.398       .  A
C1131      F1138   1.358       .  S
C1132      C1133   1.407       .  A
C1133      C1134   1.396       .  A
C1133      F1140   1.359       .  S
C1134      C1135   1.409       .  A
C1134      F1139   1.358       .  S
C1135      C1136   1.410       .  A
C1136      F1137   1.357       .  S
C1141      C1142   1.405       .  A
C1141      C1146   1.396       .  A
C1141      F1148   1.358   1_556  S
C1142      C1143   1.405       .  A
C1143      C1144   1.398       .  A
C1143      F1150   1.358       .  S
C1144      C1145   1.409       .  A
C1144      F1149   1.358       .  S
C1145      C1146   1.407       .  A
C1146      F1147   1.358   1_556  S
C1151      C1152   1.409       .  A
C1151      C1156   1.402       .  A
C1152      C1153   1.404       .  A
C1153      C1154   1.395       .  A
C1153      F1160   1.358       .  S
C1154      C1155   1.414       .  A
C1154      F1159   1.358       .  S
C1155      C1156   1.410       .  A
C1161      C1166   1.397       .  A
C1161      F1168   1.358       .  S
C1162      C1163   1.408       .  A
C1163      C1164   1.397       .  A
C1163      F1170   1.358       .  S
C1164      C1165   1.407       .  A
C1164      F1169   1.358       .  S
C1166      F1167   1.358       .  S
C1171      C1172   1.404       .  A
C1171      C1176   1.399       .  A
C1172      C1173   1.404       .  A
C1173      C1174   1.398       .  A
C1173      F1180   1.358   1_556  S
C1174      C1175   1.412       .  A
C1174      F1179   1.358   1_556  S
C1175      C1176   1.414       .  A
C1176      F1177   1.358       .  S
C1181      C1182   1.405       .  A
C1181      C1186   1.398       .  A
C1181      F1188   1.358       .  S
C1182      C1183   1.405   1_556  A
C1183      C1184   1.402   1_554  A
C1183      F1190   1.358       .  S
C1184      C1185   1.411       .  A
C1184      F1189   1.358   1_556  S
C1185      C1186   1.409       .  A
C1186      F1187   1.358       .  S
C1191      C1196   1.401       .  A
C1191      F1198   1.358       .  S
C1192      C1193   1.402       .  A
C1193      C1194   1.397       .  A
C1193      F1200   1.358       .  S
C1194      C1195   1.404       .  A
C1194      F1199   1.358       .  S
C1196      F1197   1.358       .  S
C1201      C1206   1.402       .  A
C1201      C1395   1.474       .  S
C1202      C1403   1.405   1_554  A
C1202      H1207   1.083       .  S
C1203      C1402   1.405       .  A
C1203      C1204   1.404       .  A
C1203      C1382   1.481       .  S
C1204      H1208   1.085       .  S
C1205      C1406   1.400       .  A
C1205      C1372   1.481       .  S
C1206      C1405   1.401   1_554  A
C1206      H1209   1.084       .  S
C1210      C1215   1.403       .  A
C1210      C1362   1.483       .  S
C1211      C1412   1.404   1_554  A
C1211      H1216   1.082       .  S
C1212      C1411   1.405       .  A
C1212      C1352   1.486       .  S
C1213      C1214   1.400       .  A
C1213      H1217   1.084       .  S
C1214      C1415   1.399       .  A
C1214      C1342   1.478       .  S
C1215      C1414   1.398   1_554  A
C1215      H1218   1.084       .  S
Fe1219     O1235   2.053       .  S
Fe1219     O1225   2.063       .  S
Fe1219     O1232   2.063       .  S
Fe1219     O1224   2.041       .  S
Fe1219     O1230   1.970       .  S
Fe1220     O1223   2.056       .  S
Fe1220     O1227   2.062       .  S
Fe1220     O1231   2.046       .  S
Fe1220     O1236   2.058       .  S
Fe1220     O1230   1.976       .  S
Fe1221     O1239   2.078       .  S
Fe1221     O1226   2.060       .  S
Fe1221     O1233   2.071       .  S
Fe1221     O1222   2.083       .  S
Fe1221     O1230   1.979       .  S
O1222      C1229   1.271       .  A
O1223      C1237   1.269       .  A
O1224      C1229   1.264       .  A
O1225      C1228   1.270       .  A
O1226      C1238   1.268       .  A
O1227      C1240   1.267       .  A
C1228      C1385   1.484       .  S
C1228      O1233   1.271       .  A
C1229      C1355   1.490       .  S
O1231      C1234   1.267       .  A
O1232      C1234   1.269       .  A
C1234      C1322   1.463       .  S
O1235      C1240   1.265       .  A
O1236      C1238   1.267       .  A
C1237      C1375   1.491       .  S
C1237      O1239   1.273       .  A
C1238      C1345   1.477       .  S
C1240      C1332   1.477       .  S
C1241      C1242   1.409       .  A
C1241      C1246   1.407       .  A
C1241      C1335   1.487       .  S
C1242      C1243   1.405       .  A
C1242      H1247   1.083       .  S
C1243      C1244   1.401       .  A
C1243      C1305   1.484       .  S
C1244      C1245   1.398       .  A
C1244      H1248   1.085       .  S
C1245      C1246   1.398       .  A
C1245      C1312   1.474       .  S
C1246      H1249   1.082       .  S
C1250      C1251   1.406       .  A
C1250      C1255   1.402       .  A
C1250      C1325   1.476       .  S
C1251      C1252   1.401       .  A
C1251      H1256   1.084       .  S
C1252      C1253   1.401       .  A
C1252      C1292   1.480       .  S
C1253      C1254   1.401       .  A
C1253      H1257   1.084       .  S
C1254      C1255   1.398       .  A
C1254      C1285   1.475       .  S
C1255      H1258   1.083       .  S
Fe1259     O1275   2.058       .  S
Fe1259     O1265   2.053       .  S
Fe1260     O1263   2.059       .  S
Fe1260     O1267   2.066       .  S
Fe1260     O1270   1.976       .  S
Fe1261     O1279   2.057       .  S
Fe1261     O1270   1.978       .  S
O1262      C1269   1.267       .  A
O1263      C1277   1.269       .  A
O1264      C1269   1.267       .  A
O1265      C1268   1.267       .  A
O1266      C1278   1.269       .  A
O1267      C1280   1.269       .  A
C1268      C1302   1.491       .  S
C1268      O1273   1.270       .  A
C1269      C1282   1.480       .  S
O1271      C1274   1.267       .  A
C1274      C1365   1.476       .  S
O1276      C1278   1.270       .  A
C1277      C1315   1.476       .  S
C1277      O1279   1.268       .  A
C1278      C1295   1.489       .  S
C1280      C1392   1.465       .  S
C1281      C1282   1.411       .  A
C1281      C1286   1.397       .  A
C1281      F1288   1.358       .  S
C1282      C1283   1.410       .  A
C1283      C1284   1.393       .  A
C1283      F1290   1.358       .  S
C1284      C1285   1.403       .  A
C1284      F1289   1.358       .  S
C1285      C1286   1.405       .  A
C1286      F1287   1.358       .  S
C1291      C1292   1.404       .  A
C1291      C1296   1.399       .  A
C1291      F1298   1.358       .  S
C1292      C1293   1.405       .  A
C1293      C1294   1.397       .  A
C1293      F1300   1.358       .  S
C1294      C1295   1.411       .  A
C1294      F1299   1.358       .  S
C1295      C1296   1.414       .  A
C1296      F1297   1.358       .  S
C1301      C1302   1.413       .  A
C1301      C1306   1.397       .  A
C1301      F1308   1.358       .  S
C1302      C1303   1.413       .  A
C1303      C1304   1.400       .  A
C1303      F1310   1.358       .  S
C1304      C1305   1.406       .  A
C1304      F1309   1.358       .  S
C1305      C1306   1.405       .  A
C1306      F1307   1.358       .  S
C1311      C1312   1.403       .  A
C1311      C1316   1.398       .  A
C1311      F1318   1.358       .  S
C1312      C1313   1.403       .  A
C1313      C1314   1.395       .  A
C1313      F1320   1.358       .  S
C1314      C1315   1.407       .  A
C1314      F1319   1.358       .  S
C1315      C1316   1.410       .  A
C1316      F1317   1.358       .  S
C1321      C1322   1.402       .  A
C1321      C1326   1.396       .  A
C1321      F1328   1.358       .  S
C1322      C1323   1.403       .  A
C1323      C1324   1.393       .  A
C1323      F1330   1.358       .  S
C1324      C1325   1.406       .  A
C1324      F1329   1.358       .  S
C1325      C1326   1.409       .  A
C1326      F1327   1.358       .  S
C1331      C1332   1.406       .  A
C1331      C1336   1.398       .  A
C1331      F1338   1.358       .  S
C1332      C1333   1.407       .  A
C1333      C1334   1.396       .  A
C1333      F1340   1.359       .  S
C1334      C1335   1.409       .  A
C1334      F1339   1.358       .  S
C1335      C1336   1.410       .  A
C1336      F1337   1.357       .  S
C1341      C1342   1.405       .  A
C1341      C1346   1.396       .  A
C1341      F1348   1.358       .  S
C1342      C1343   1.405       .  A
C1343      C1344   1.398       .  A
C1343      F1350   1.358       .  S
C1344      C1345   1.409       .  A
C1344      F1349   1.358       .  S
C1345      C1346   1.407       .  A
C1346      F1347   1.358       .  S
C1351      C1352   1.409       .  A
C1351      C1356   1.402       .  A
C1351      F1558   1.358       .  S
C1352      C1353   1.404       .  A
C1353      C1354   1.395       .  A
C1353      F1360   1.358       .  S
C1354      C1355   1.413       .  A
C1354      F1359   1.358       .  S
C1355      C1356   1.410       .  A
C1356      F1557   1.358       .  S
F1357      C1556   1.358   1_554  S
F1358      C1551   1.358   1_554  S
C1361      C1366   1.397       .  A
C1361      F1368   1.358       .  S
C1362      C1363   1.408       .  A
C1363      C1364   1.396       .  A
C1363      F1370   1.358       .  S
C1364      C1365   1.407       .  A
C1364      F1369   1.358       .  S
C1366      F1367   1.358       .  S
C1371      C1372   1.404       .  A
C1371      C1376   1.399       .  A
C1371      F1578   1.358       .  S
C1372      C1373   1.404       .  A
C1373      C1374   1.398       .  A
C1373      F1380   1.358       .  S
C1374      C1375   1.412       .  A
C1374      F1379   1.358       .  S
C1375      C1376   1.414       .  A
C1376      F1377   1.358       .  S
F1378      C1571   1.358       .  S
C1381      C1382   1.405       .  A
C1381      C1386   1.398       .  A
C1381      F1388   1.358       .  S
C1382      C1383   1.405       .  A
C1383      C1384   1.401       .  A
C1383      F1390   1.358       .  S
C1384      C1385   1.411       .  A
C1384      F1389   1.358       .  S
C1385      C1386   1.409       .  A
C1386      F1387   1.358       .  S
C1391      C1396   1.401       .  A
C1391      F1398   1.358       .  S
C1392      C1393   1.402       .  A
C1393      C1394   1.397       .  A
C1393      F1400   1.358       .  S
C1394      C1395   1.405       .  A
C1394      F1399   1.358       .  S
C1396      F1397   1.358       .  S
C1401      C1406   1.402       .  A
C1401      C1595   1.473       .  S
C1402      H1407   1.083       .  S
C1403      C1404   1.404       .  A
C1403      C1582   1.481       .  S
C1404      H1408   1.085       .  S
C1405      C1572   1.481       .  S
C1406      H1409   1.084       .  S
C1410      C1415   1.403       .  A
C1410      C1562   1.484       .  S
C1411      H1416   1.082       .  S
C1412      C1552   1.486       .  S
C1413      C1414   1.400       .  A
C1413      H1417   1.084       .  S
C1414      C1542   1.477       .  S
C1415      H1418   1.084       .  S
Fe1419     O1435   2.053       .  S
Fe1419     O1425   2.064       .  S
Fe1419     O1432   2.064       .  S
Fe1419     O1424   2.041       .  S
Fe1419     O1430   1.970       .  S
Fe1420     O1423   2.056       .  S
Fe1420     O1427   2.063       .  S
Fe1420     O1431   2.047       .  S
Fe1420     O1436   2.058       .  S
Fe1420     O1430   1.976       .  S
Fe1421     O1439   2.079       .  S
Fe1421     O1426   2.061       .  S
Fe1421     O1433   2.071       .  S
Fe1421     O1422   2.083       .  S
Fe1421     O1430   1.980       .  S
O1422      C1429   1.271       .  A
O1423      C1437   1.269       .  A
O1424      C1429   1.264       .  A
O1425      C1428   1.270       .  A
O1426      C1438   1.268       .  A
O1427      C1440   1.267       .  A
C1428      C1585   1.485       .  S
C1428      O1433   1.271       .  A
C1429      C1555   1.490       .  S
O1431      C1434   1.266       .  A
O1432      C1434   1.269       .  A
C1434      C1522   1.464       .  S
O1435      C1440   1.265       .  A
O1436      C1438   1.267       .  A
C1437      C1575   1.492       .  S
C1437      O1439   1.274       .  A
C1438      C1545   1.477       .  S
C1440      C1532   1.478       .  S
C1441      C1442   1.410       .  A
C1441      C1446   1.408       .  A
C1441      C1535   1.488       .  S
C1442      C1443   1.405       .  A
C1442      H1447   1.083       .  S
C1443      C1444   1.401       .  A
C1443      C1505   1.484       .  S
C1444      C1445   1.398       .  A
C1444      H1448   1.085       .  S
C1445      C1446   1.398       .  A
C1445      C1512   1.474       .  S
C1446      H1449   1.081       .  S
C1450      C1451   1.406       .  A
C1450      C1455   1.402       .  A
C1450      C1525   1.476       .  S
C1451      C1452   1.402       .  A
C1451      H1456   1.084       .  S
C1452      C1453   1.401       .  A
C1452      C1492   1.480       .  S
C1453      C1454   1.401       .  A
C1453      H1457   1.084       .  S
C1454      C1455   1.398       .  A
C1454      C1485   1.476       .  S
C1455      H1458   1.083       .  S
Fe1459     O1475   2.058       .  S
Fe1459     O1465   2.054       .  S
Fe1460     O1463   2.059       .  S
Fe1460     O1467   2.066       .  S
Fe1460     O1470   1.977       .  S
Fe1461     O1479   2.058       .  S
Fe1461     O1470   1.978       .  S
O1462      C1469   1.268       .  A
O1463      C1477   1.269       .  A
O1464      C1469   1.267       .  A
O1465      C1468   1.267       .  A
O1466      C1478   1.269       .  A
O1467      C1480   1.269       .  A
C1468      C1502   1.492       .  S
C1468      O1473   1.270       .  A
C1469      C1482   1.480       .  S
O1471      C1474   1.268       .  A
C1474      C1565   1.477       .  S
O1476      C1478   1.270       .  A
C1477      C1515   1.477       .  S
C1477      O1479   1.268       .  A
C1478      C1495   1.489       .  S
C1480      C1592   1.464       .  S
C1481      C1482   1.411       .  A
C1481      C1486   1.397       .  A
C1481      F1488   1.358       .  S
C1482      C1483   1.410       .  A
C1483      C1484   1.393       .  A
C1483      F1490   1.358       .  S
C1484      C1485   1.403       .  A
C1484      F1489   1.358       .  S
C1485      C1486   1.405       .  A
C1486      F1487   1.358       .  S
C1491      C1492   1.404       .  A
C1491      C1496   1.399       .  A
C1491      F1498   1.358       .  S
C1492      C1493   1.405       .  A
C1493      C1494   1.397       .  A
C1493      F1500   1.358       .  S
C1494      C1495   1.411       .  A
C1494      F1499   1.358       .  S
C1495      C1496   1.414       .  A
C1496      F1497   1.358       .  S
C1501      C1502   1.413       .  A
C1501      C1506   1.397       .  A
C1501      F1508   1.358       .  S
C1502      C1503   1.413       .  A
C1503      C1504   1.401       .  A
C1503      F1510   1.358       .  S
C1504      C1505   1.406       .  A
C1504      F1509   1.358       .  S
C1505      C1506   1.405       .  A
C1506      F1507   1.358       .  S
C1511      C1512   1.403       .  A
C1511      C1516   1.399       .  A
C1511      F1518   1.358       .  S
C1512      C1513   1.403       .  A
C1513      C1514   1.396       .  A
C1513      F1520   1.358       .  S
C1514      C1515   1.407       .  A
C1514      F1519   1.358       .  S
C1515      C1516   1.410       .  A
C1516      F1517   1.358       .  S
C1521      C1522   1.402       .  A
C1521      C1526   1.396       .  A
C1521      F1528   1.358       .  S
C1522      C1523   1.403       .  A
C1523      C1524   1.394       .  A
C1523      F1530   1.358       .  S
C1524      C1525   1.406       .  A
C1524      F1529   1.358       .  S
C1525      C1526   1.409       .  A
C1526      F1527   1.358       .  S
C1531      C1532   1.406       .  A
C1531      C1536   1.398       .  A
C1531      F1538   1.358       .  S
C1532      C1533   1.407       .  A
C1533      C1534   1.396       .  A
C1533      F1540   1.359       .  S
C1534      C1535   1.409       .  A
C1534      F1539   1.358       .  S
C1535      C1536   1.410       .  A
C1536      F1537   1.357       .  S
C1541      C1542   1.405       .  A
C1541      C1546   1.396       .  A
C1541      F1548   1.358   1_556  S
C1542      C1543   1.405       .  A
C1543      C1544   1.398       .  A
C1543      F1550   1.358       .  S
C1544      C1545   1.409       .  A
C1544      F1549   1.358       .  S
C1545      C1546   1.407       .  A
C1546      F1547   1.358   1_556  S
C1551      C1552   1.409       .  A
C1551      C1556   1.402       .  A
C1552      C1553   1.404       .  A
C1553      C1554   1.395       .  A
C1553      F1560   1.358       .  S
C1554      C1555   1.414       .  A
C1554      F1559   1.358       .  S
C1555      C1556   1.410       .  A
C1561      C1566   1.397       .  A
C1561      F1568   1.358       .  S
C1562      C1563   1.408       .  A
C1563      C1564   1.397       .  A
C1563      F1570   1.358       .  S
C1564      C1565   1.407       .  A
C1564      F1569   1.358       .  S
C1566      F1567   1.358       .  S
C1571      C1572   1.404       .  A
C1571      C1576   1.399       .  A
C1572      C1573   1.404       .  A
C1573      C1574   1.398       .  A
C1573      F1580   1.358   1_556  S
C1574      C1575   1.412       .  A
C1574      F1579   1.358   1_556  S
C1575      C1576   1.414       .  A
C1576      F1577   1.358       .  S
C1581      C1582   1.405       .  A
C1581      C1586   1.398       .  A
C1581      F1588   1.358       .  S
C1582      C1583   1.405   1_556  A
C1583      C1584   1.402   1_554  A
C1583      F1590   1.358       .  S
C1584      C1585   1.411       .  A
C1584      F1589   1.358   1_556  S
C1585      C1586   1.409       .  A
C1586      F1587   1.358       .  S
C1591      C1596   1.401       .  A
C1591      F1598   1.358       .  S
C1592      C1593   1.402       .  A
C1593      C1594   1.397       .  A
C1593      F1600   1.358       .  S
C1594      C1595   1.404       .  A
C1594      F1599   1.358       .  S
C1596      F1597   1.358       .  S
