geometry optimzed in LAMMPS
_audit_creation_date              2020-12-01 
_audit_creation_method            'lammps2cif' 
_symmetry_space_group_name_H-M    'P1' 
_symmetry_Int_Tables_number       1 
_symmetry_cell_setting            triclinic 
loop_ 
_symmetry_equiv_pos_as_xyz 
  x,y,z 
_cell_length_a                    34.68408311 
_cell_length_b                    34.92827339581241 
_cell_length_c                    26.923398113965586 
_cell_angle_alpha                 90.11810067244583 
_cell_angle_beta                  89.94883008346966 
_cell_angle_gamma                 90.02108818615862 
loop_ 
_atom_site_label 
_atom_site_type_symbol 
_atom_site_fract_x 
_atom_site_fract_y 
_atom_site_fract_z 
_atom_site_charge 
O1          O  0.33022179  0.22897445  0.27981514    -0.83500
C2          C  0.31537724  0.10565588  0.41530512     0.95900
O3          O  0.33952748  0.10794671  0.38021469    -0.72600
O4          O  0.31193958  0.12036802  0.29076306    -0.76200
Al5        Al  0.34928061  0.14631877  0.33054712     1.49000
C6          C  0.28889161  0.13574165  0.26056808     0.91100
O7          O  0.23890291  0.19343179  0.34311072    -0.82400
O8          O  0.32308875  0.24010660  0.41794587    -0.76000
Al9        Al  0.28672858  0.20919407  0.31414167     1.90100
O10         O  0.25775238  0.19641078  0.42067254    -0.75000
O11         O  0.36421138  0.17902464  0.43665655    -0.74900
O12         O  0.29898939  0.13517370  0.43193208    -0.80500
O13         O  0.39203588  0.16802026  0.36539457    -0.78700
O14         O  0.31567933  0.18063672  0.35502064    -1.14900
O15         O  0.36514647  0.17674835  0.27558476    -0.74100
C16         C  0.35752396  0.21011692  0.26068947     0.96600
C17         C  0.23116275  0.19494330  0.38888833     0.93000
Al18       Al  0.31144172  0.18698015  0.42079506     1.55600
O19         O  0.27959282  0.17044182  0.26539470    -0.78700
C20         C  0.39423353  0.17731330  0.41053111     0.97200
C21         C  0.30518978  0.26464253  0.39252128     0.92100
O22         O  0.28739631  0.25467003  0.35376329    -0.84000
C23         C  0.27157051  0.04348286  0.99341256     0.78500
N24         N  0.27264401  0.04868900  0.04363890    -0.79800
C25         C  0.25622956  0.08008670  0.06477182     0.81000
N26         N  0.23877698  0.10621136  0.03517841    -0.79700
C27         C  0.23775579  0.10180292  0.98512060     0.81100
N28         N  0.25448530  0.07046428  0.96426788    -0.81400
C29         C  0.45881652  0.24079084  0.00135202     0.78500
N30         N  0.45190734  0.23760666  0.05101174    -0.79800
C31         C  0.41975138  0.25330828  0.07148030     0.81000
N32         N  0.39474454  0.27235653  0.04191216    -0.79700
C33         C  0.40088063  0.27564517  0.99239201     0.81100
N34         N  0.43282945  0.25932157  0.97194985    -0.81400
O35         O  0.30313722  0.74555382  0.84266356    -0.83500
C36         C  0.32159079  0.90054488  0.90567311     0.95900
O37         O  0.31937297  0.87123536  0.93263039    -0.72600
O38         O  0.25701201  0.83111067  0.91525668    -0.76200
Al39       Al  0.31015051  0.81868778  0.91836309     1.49000
C40         C  0.23213947  0.81243831  0.89111101     0.91100
O41         O  0.26794012  0.83540350  0.77697566    -0.82400
O42         O  0.37741499  0.81541148  0.79010908    -0.76000
Al43       Al  0.28744354  0.79254729  0.81253054     1.90100
O44         O  0.32152453  0.86852697  0.77152301    -0.75000
O45         O  0.38978789  0.84541728  0.87800082    -0.74900
O46         O  0.33010794  0.89737808  0.86037095    -0.80500
O47         O  0.36186265  0.80548161  0.92944215    -0.78700
O48         O  0.31649872  0.82166022  0.85265825    -1.14900
O49         O  0.29967207  0.76554502  0.91970389    -0.74100
C50         C  0.30139789  0.73861431  0.88858511     0.96600
C51         C  0.28770809  0.86150966  0.75684539     0.93000
Al52       Al  0.35159610  0.85396014  0.82747272     1.55600
O53         O  0.24173470  0.79418747  0.85251229    -0.78700
C54         C  0.39173159  0.82158610  0.91318143     0.97200
C55         C  0.36183002  0.79215555  0.76041241     0.92100
O56         O  0.32647644  0.78418868  0.76414398    -0.84000
C57         C  0.45927806  0.76591774  0.49893699     0.78500
N58         N  0.43218374  0.74894604  0.46952604    -0.79800
C59         C  0.40039312  0.73258481  0.49022878     0.81000
N60         N  0.39553745  0.73421807  0.54014848    -0.79700
C61         C  0.42172017  0.75172877  0.56983522     0.81100
N62         N  0.45367578  0.76748511  0.54901334    -0.81400
C63         C  0.26350514  0.96127743  0.49601505     0.78500
N64         N  0.24656694  0.93502970  0.46535321    -0.79800
C65         C  0.23047904  0.90276679  0.48464211     0.81000
N66         N  0.23233388  0.89664658  0.53427508    -0.79700
C67         C  0.24972607  0.92190057  0.56510616     0.81100
N68         N  0.26526945  0.95433565  0.54578259    -0.81400
O69         O  0.66794580  0.78768807  0.26310001    -0.83500
C70         C  0.67076099  0.90238759  0.40662215     0.95900
O71         O  0.66186217  0.89952369  0.36140534    -0.72600
O72         O  0.67067433  0.87196103  0.27169270    -0.76200
Al73       Al  0.64100414  0.85601927  0.32772642     1.49000
C74         C  0.70460969  0.86574671  0.25672976     0.91100
O75         O  0.75243082  0.79886239  0.35172278    -0.82400
O76         O  0.69502081  0.76796693  0.41833670    -0.76000
Al77       Al  0.70672042  0.79647567  0.31167052     1.90100
O78         O  0.73612258  0.83463250  0.41515284    -0.75000
O79         O  0.63185976  0.80608467  0.42891647    -0.74900
O80         O  0.67274159  0.87293839  0.43332560    -0.80500
O81         O  0.60283597  0.84580322  0.37832062    -0.78700
O82         O  0.67686322  0.82432256  0.35230217    -1.14900
O83         O  0.61610186  0.81725954  0.28945869    -0.74100
C84         C  0.63242918  0.79485672  0.25923357     0.96600
C85         C  0.76153471  0.81692630  0.39067504     0.93000
Al86       Al  0.68324785  0.82079777  0.41799319     1.55600
O87         O  0.72508067  0.84022307  0.27689823    -0.78700
C88         C  0.60151404  0.82145288  0.41303258     0.97200
C89         C  0.69385980  0.74136301  0.38673034     0.92100
O90         O  0.69220924  0.74874522  0.34091954    -0.84000
C91         C  0.72782077  0.96239557  0.99297327     0.78500
N92         N  0.72533337  0.95598771  0.04286921    -0.79800
C93         C  0.74210278  0.92463412  0.06352151     0.81000
N94         N  0.76132622  0.89979809  0.03386734    -0.79700
C95         C  0.76380705  0.90530966  0.98420536     0.81100
N96         N  0.74663885  0.93651441  0.96363915    -0.81400
C97         C  0.53549990  0.77028312  0.99700287     0.78500
N98         N  0.56224233  0.75359676  0.96682251    -0.79800
C99         C  0.59435835  0.73741036  0.98661899     0.81000
N100        N  0.59985776  0.73891742  0.03649325    -0.79700
C101        C  0.57392075  0.75608441  0.06694852     0.81100
N102        N  0.54162130  0.77163997  0.04694774    -0.81400
O103        O  0.72436680  0.16517301  0.77944308    -0.83500
C104        C  0.60115779  0.18461665  0.91642605     0.95900
O105        O  0.60242284  0.16044309  0.88147440    -0.72600
O106        O  0.61501550  0.18919810  0.79294960    -0.76200
Al107      Al  0.64022641  0.15047388  0.83059488     1.49000
C108        C  0.63115624  0.21100111  0.76196165     0.91100
O109        O  0.69135922  0.25758528  0.84146611    -0.82400
O110        O  0.73616083  0.17369794  0.91706983    -0.76000
Al111      Al  0.70596726  0.20960971  0.81317070     1.90100
O112        O  0.69347068  0.23970401  0.91952192    -0.75000
O113        O  0.67409801  0.13376432  0.93550376    -0.74900
O114        O  0.63150722  0.20005391  0.93219780    -0.80500
O115        O  0.66138459  0.10719250  0.86381727    -0.78700
O116        O  0.67630270  0.18228679  0.85462510    -1.14900
O117        O  0.66938756  0.13440103  0.77428549    -0.74100
C118        C  0.70354505  0.13967167  0.75961496     0.96600
C119        C  0.69233128  0.26572711  0.88712971     0.93000
Al120      Al  0.68309663  0.18637411  0.92020094     1.55600
O121        O  0.66688957  0.21755926  0.76459341    -0.78700
C122        C  0.67145828  0.10430984  0.90859558     0.97200
C123        C  0.76130451  0.19130262  0.89219072     0.92100
O124        O  0.75193705  0.20845313  0.85280918    -0.84000
C125        C  0.53434413  0.23569605  0.50011119     0.78500
N126        N  0.53977577  0.23421199  0.55026229    -0.79800
C127        C  0.57084671  0.25145679  0.57152794     0.81000
N128        N  0.59639361  0.27018595  0.54214935    -0.79700
C129        C  0.59176676  0.27168900  0.49221396     0.81100
N130        N  0.56082522  0.25404071  0.47121753    -0.81400
C131        C  0.72622982  0.04294299  0.49591052     0.78500
N132        N  0.74409512  0.06985113  0.46733026    -0.79800
C133        C  0.76078448  0.10101441  0.48874966     0.81000
N134        N  0.75902078  0.10526366  0.53874091    -0.79700
C135        C  0.74088146  0.07927040  0.56772050     0.81100
N136        N  0.72431887  0.04813251  0.54610751    -0.81400
O137        O  0.80113924  0.24718293  0.34470626    -0.83500
C138        C  0.82100573  0.40223055  0.40497288     0.95900
O139        O  0.81838372  0.37339214  0.43275319    -0.72600
O140        O  0.75548928  0.33374432  0.41582833    -0.76200
Al141      Al  0.80856783  0.32073463  0.41956273     1.49000
C142        C  0.73057117  0.31503741  0.39179583     0.91100
O143        O  0.76742254  0.33698337  0.27752294    -0.82400
O144        O  0.87676229  0.31494674  0.29258408    -0.76000
Al145      Al  0.78616092  0.29403351  0.31380272     1.90100
O146        O  0.82183343  0.36868012  0.27158822    -0.75000
O147        O  0.88886976  0.34602542  0.37981156    -0.74900
O148        O  0.82982363  0.39837689  0.35988520    -0.80500
O149        O  0.86009198  0.30696359  0.43153144    -0.78700
O150        O  0.81537714  0.32297169  0.35384604    -1.14900
O151        O  0.79749864  0.26763372  0.42160268    -0.74100
C152        C  0.79924849  0.24053159  0.39069806     0.96600
C153        C  0.78783911  0.36241408  0.25695851     0.93000
Al154      Al  0.85116285  0.35438161  0.32846718     1.55600
O155        O  0.74023323  0.29647378  0.35345153    -0.78700
C156        C  0.89032103  0.32239590  0.41528447     0.97200
C157        C  0.86102446  0.29198862  0.26265780     0.92100
O158        O  0.82543348  0.28481085  0.26576499    -0.84000
C159        C  0.95934379  0.26760592  0.00178420     0.78500
N160        N  0.93218066  0.25091100  0.97212004    -0.79800
C161        C  0.90045420  0.23426319  0.99262206     0.81000
N162        N  0.89580643  0.23530752  0.04255499    -0.79700
C163        C  0.92198927  0.25242939  0.07255020     0.81100
N164        N  0.95388299  0.26853702  0.05195948    -0.81400
C165        C  0.76328369  0.46322300  0.99628986     0.78500
N166        N  0.76501982  0.45645728  0.04611363    -0.79800
C167        C  0.74960233  0.42395291  0.06552859     0.81000
N168        N  0.73222008  0.39860023  0.03476431    -0.79700
C169        C  0.73042894  0.40465313  0.98510346     0.81100
N170        N  0.74652681  0.43685481  0.96571917    -0.81400
O171        O  0.16927826  0.28690012  0.76373552    -0.83500
C172        C  0.17072666  0.40125299  0.90711436     0.95900
O173        O  0.16189897  0.39816908  0.86194836    -0.72600
O174        O  0.17097280  0.37061145  0.77272470    -0.76200
Al175      Al  0.14153212  0.35453983  0.82873496     1.49000
C176        C  0.20523451  0.36543093  0.75844864     0.91100
O177        O  0.25364471  0.29873872  0.85279701    -0.82400
O178        O  0.19558940  0.26664462  0.91925183    -0.76000
Al179      Al  0.20803729  0.29592012  0.81267646     1.90100
O180        O  0.23653284  0.33360038  0.91666984    -0.75000
O181        O  0.13227323  0.30497201  0.93015717    -0.74900
O182        O  0.17327971  0.37189957  0.93400407    -0.80500
O183        O  0.10346191  0.34461034  0.87934804    -0.78700
O184        O  0.17764882  0.32318706  0.85342931    -1.14900
O185        O  0.11709602  0.31544120  0.79104821    -0.74100
C186        C  0.13360315  0.29365809  0.76027930     0.96600
C187        C  0.26232345  0.31674626  0.89192139     0.93000
Al188      Al  0.18377633  0.31962731  0.91911411     1.55600
O189        O  0.22601063  0.34014347  0.77853304    -0.78700
C190        C  0.10203082  0.32067724  0.91447593     0.97200
C191        C  0.19549984  0.24021209  0.88729960     0.92100
O192        O  0.19428689  0.24783553  0.84151334    -0.84000
C193        C  0.22539259  0.46135112  0.49511869     0.78500
N194        N  0.24409036  0.43513831  0.46611276    -0.79800
C195        C  0.26221148  0.40466894  0.48727962     0.81000
N196        N  0.26081989  0.40030776  0.53721047    -0.79700
C197        C  0.24177073  0.42548850  0.56651866     0.81100
N198        N  0.22400941  0.45602652  0.54527727    -0.81400
C199        C  0.03358949  0.26877948  0.49932154     0.78500
N200        N  0.04003523  0.27050847  0.54924778    -0.79800
C201        C  0.07249457  0.25503247  0.56905722     0.81000
N202        N  0.09817248  0.23768174  0.53852938    -0.79700
C203        C  0.09245825  0.23582605  0.48879113     0.81100
N204        N  0.06022691  0.25189375  0.46906372    -0.81400
O205        O  0.19161444  0.75577571  0.34010299    -0.83500
C206        C  0.17036751  0.60273493  0.40834208     0.95900
O207        O  0.17379384  0.63237581  0.43471736    -0.72600
O208        O  0.23686114  0.67057847  0.41461242    -0.76200
Al209      Al  0.18409482  0.68458933  0.41877107     1.49000
C210        C  0.26183321  0.68863143  0.38992656     0.91100
O211        O  0.22418041  0.66315598  0.27828436    -0.82400
O212        O  0.11516931  0.68778412  0.29226746    -0.76000
Al213      Al  0.20615114  0.70768504  0.31176630     1.90100
O214        O  0.16909401  0.63235124  0.27367653    -0.75000
O215        O  0.10263769  0.66013618  0.38129129    -0.74900
O216        O  0.16052416  0.60550110  0.36348716    -0.80500
O217        O  0.13294008  0.69966335  0.43099337    -0.78700
O218        O  0.17663329  0.68050514  0.35344373    -1.14900
O219        O  0.19581830  0.73761802  0.41787455    -0.74100
C220        C  0.19359545  0.76378105  0.38576759     0.96600
C221        C  0.20323816  0.63762361  0.25874499     0.93000
Al222      Al  0.14005209  0.64904103  0.33003871     1.55600
O223        O  0.25218338  0.70641672  0.35112624    -0.78700
C224        C  0.10208381  0.68491310  0.41565856     0.96400
C225        C  0.13138094  0.70924040  0.26100389     0.92100
O226        O  0.16713095  0.71557374  0.26338070    -0.84000
C227        C  0.03601838  0.73175667  0.99836712     0.78500
N228        N  0.06273674  0.74977917  0.96944792    -0.79800
C229        C  0.09372331  0.76722592  0.99061837     0.81000
N230        N  0.09808199  0.76580499  0.04054266    -0.79700
C231        C  0.07228437  0.74748082  0.06984759     0.81100
N232        N  0.04117311  0.73044239  0.04855262    -0.81400
C233        C  0.22386649  0.54302841  0.99412385     0.78500
N234        N  0.22223305  0.54821526  0.04426564    -0.79800
C235        C  0.23935460  0.57898275  0.06582926     0.81000
N236        N  0.25793293  0.60464726  0.03681347    -0.79700
C237        C  0.25955418  0.60036409  0.98678264     0.81100
N238        N  0.24219029  0.56953491  0.96538668    -0.81400
O239        O  0.83162925  0.72980686  0.77750898    -0.83500
C240        C  0.81525304  0.60688689  0.91322846     0.95900
O241        O  0.83966305  0.60872992  0.87830946    -0.72600
O242        O  0.81297419  0.62112296  0.78838882    -0.76200
Al243      Al  0.85010655  0.64696199  0.82835921     1.49000
C244        C  0.79015667  0.63651641  0.75799576     0.91100
O245        O  0.73987250  0.69399560  0.83957973    -0.82400
O246        O  0.82416456  0.74123563  0.91452632    -0.76000
Al247      Al  0.78785349  0.70997940  0.81109323     1.90100
O248        O  0.75844212  0.69806364  0.91718856    -0.75000
O249        O  0.86452231  0.67987651  0.93435480    -0.74900
O250        O  0.79900127  0.63668878  0.92920121    -0.80500
O251        O  0.89269775  0.66826524  0.86351183    -0.78700
O252        O  0.81655229  0.68152160  0.85230033    -1.14900
O253        O  0.86657488  0.67753370  0.77342741    -0.74100
C254        C  0.85918727  0.71108214  0.75877067     0.96600
C255        C  0.73197963  0.69592433  0.88530421     0.93000
Al256      Al  0.81200161  0.68824832  0.91787710     1.55600
O257        O  0.78115611  0.67130301  0.76236452    -0.78700
C258        C  0.89469620  0.67751975  0.90863153     0.97200
C259        C  0.80611121  0.76564484  0.88907698     0.92100
O260        O  0.78807430  0.75547813  0.85060052    -0.84000
C261        C  0.77001163  0.54489135  0.49135947     0.78500
N262        N  0.77189545  0.55000466  0.54152482    -0.79800
C263        C  0.75543843  0.58108432  0.56324289     0.81000
N264        N  0.73728698  0.60713638  0.53430201    -0.79700
C265        C  0.73544885  0.60285727  0.48428109     0.81100
N266        N  0.75207698  0.57170969  0.46282774    -0.81400
C267        C  0.96007033  0.74318443  0.50000825     0.78500
N268        N  0.93305615  0.76015242  0.47055900    -0.79800
C269        C  0.90089623  0.77595961  0.49120688     0.81000
N270        N  0.89555174  0.77357198  0.54100797    -0.79700
C271        C  0.92159685  0.75589683  0.57060564     0.81100
N272        N  0.95398232  0.74085638  0.54990534    -0.81400
C273        C  0.86767395  0.76036491  0.69239894    -0.15000
C274        C  0.88103286  0.72725115  0.71635961     0.07100
C275        C  0.91221589  0.70711166  0.69538914    -0.15000
C276        C  0.92764372  0.71815810  0.64950531    -0.15000
C277        C  0.91188506  0.74929386  0.62353398     0.07100
C278        C  0.88279797  0.77114724  0.64641006    -0.15000
H279        H  0.84385237  0.77665230  0.70762072     0.11100
H280        H  0.92334175  0.68160210  0.71311225     0.11100
H281        H  0.95010170  0.70078398  0.63293203     0.11100
H282        H  0.87034952  0.79557741  0.62761098     0.11100
C283        C  0.79742456  0.58509960  0.69333589    -0.15000
C284        C  0.77596089  0.61533643  0.71404132     0.07100
C285        C  0.74429083  0.62974789  0.68760077    -0.15000
C286        C  0.73620831  0.61663744  0.63980879    -0.15000
C287        C  0.75962621  0.58879435  0.61716870     0.07100
C288        C  0.78930359  0.57189666  0.64518713    -0.15000
H289        H  0.82214492  0.57361030  0.71280858     0.11100
H290        H  0.72701550  0.65281701  0.70277755     0.11100
H291        H  0.71268478  0.62977228  0.61963751     0.11100
H292        H  0.80776998  0.55028431  0.62882887     0.11100
C293        C  0.93429656  0.69404367  0.98328456    -0.15000
C294        C  0.93220414  0.68723104  0.93185262     0.07100
C295        C  0.96541878  0.69280891  0.90281583    -0.15000
C296        C  0.99947273  0.70652082  0.92447883    -0.15000
C297        C  0.00110761  0.71449629  0.97568451     0.07100
C298        C  0.96836123  0.70729246  0.00495946    -0.15000
H299        H  0.90926453  0.68998196  0.00677246     0.11100
H300        H  0.96471324  0.68786657  0.86310455     0.11100
H301        H  0.02433829  0.71145480  0.90098995     0.11100
H302        H  0.96859277  0.71310864  0.04448090     0.11100
C303        C  0.07690298  0.70610723  0.19986526    -0.15000
C304        C  0.10972486  0.72491897  0.21845163     0.07100
C305        C  0.12561934  0.75527115  0.19123485    -0.15000
C306        C  0.11131052  0.76440541  0.14444127    -0.15000
C307        C  0.08090197  0.74321224  0.12348740     0.07100
C308        C  0.06260230  0.71515129  0.15259177    -0.15000
H309        H  0.06412985  0.68253607  0.22013053     0.11100
H310        H  0.15063181  0.77058859  0.20491470     0.11100
H311        H  0.12562806  0.78674240  0.12354094     0.11100
H312        H  0.03895927  0.69848927  0.13764197     0.11100
C313        C  0.19416379  0.58736210  0.19315694    -0.15000
C314        C  0.21725041  0.61599156  0.21492820     0.07100
C315        C  0.25098595  0.62754785  0.19030656    -0.15000
C316        C  0.25952560  0.61344178  0.14298195    -0.15000
C317        C  0.23472709  0.58721273  0.11946943     0.07100
C318        C  0.20293557  0.57295362  0.14593821    -0.15000
H319        H  0.16808265  0.57765620  0.21135340     0.11100
H320        H  0.26947610  0.64938553  0.20611289     0.11100
H321        H  0.28456517  0.62457062  0.12374920     0.11100
H322        H  0.18337189  0.55265605  0.12888088     0.11100
C323        C  0.99590059  0.70901440  0.43181371    -0.15000
C324        C  0.99593179  0.72728732  0.47837900     0.07100
C325        C  0.03073817  0.73029250  0.50465723    -0.15000
C326        C  0.06500181  0.71609168  0.48443111    -0.15000
C327        C  0.06512175  0.69764660  0.43795618     0.07100
C328        C  0.03013036  0.69388125  0.41204757    -0.15000
H329        H  0.96936981  0.70618283  0.41094491     0.11100
H330        H  0.03158966  0.74439248  0.54051612     0.11100
H331        H  0.09149507  0.71960517  0.50521778     0.11100
H332        H  0.02942530  0.68016326  0.37594500     0.11100
C333        C  0.20173335  0.49895546  0.42113433    -0.15000
C334        C  0.20748991  0.49599196  0.47274639     0.07100
C335        C  0.19751448  0.52734200  0.50298228    -0.15000
C336        C  0.18403396  0.56138580  0.48206908    -0.15000
C337        C  0.17965774  0.56491029  0.43038916     0.07100
C338        C  0.18772444  0.53298922  0.40019954    -0.15000
H339        H  0.20878445  0.47524760  0.39679563     0.11100
H340        H  0.20141805  0.52614104  0.54284599     0.11100
H341        H  0.17795131  0.58536450  0.50641398     0.11100
H342        H  0.18473829  0.53482682  0.36023863     0.11100
C343        C  0.06449177  0.28798715  0.65184649    -0.15000
C344        C  0.08239276  0.25986031  0.62233935     0.07100
C345        C  0.11333693  0.23902965  0.64250056    -0.15000
C346        C  0.12815493  0.24823398  0.68915444    -0.15000
C347        C  0.11225695  0.27831360  0.71703921     0.07100
C348        C  0.07929468  0.29710837  0.69889005    -0.15000
H349        H  0.04057935  0.30450315  0.63746172     0.11100
H350        H  0.12746734  0.21675941  0.62117096     0.11100
H351        H  0.15335602  0.23302876  0.70233277     0.11100
H352        H  0.06655357  0.32056486  0.71951842     0.11100
C353        C  0.19746528  0.41688298  0.69442780    -0.15000
C354        C  0.21958460  0.38703589  0.71490804     0.07100
C355        C  0.25252594  0.37451717  0.68933211    -0.15000
C356        C  0.26118426  0.38907755  0.64234841    -0.15000
C357        C  0.23726144  0.41667099  0.62004207     0.07100
C358        C  0.20632554  0.43169841  0.64750766    -0.15000
H359        H  0.17202884  0.42734979  0.71345151     0.11100
H360        H  0.27022179  0.35168809  0.70411446     0.11100
H361        H  0.28557880  0.37725008  0.62241388     0.11100
H362        H  0.18744776  0.45303702  0.63147617     0.11100
C363        C  0.18341585  0.44288497  0.98076322    -0.15000
C364        C  0.17974710  0.43910553  0.92903450     0.07100
C365        C  0.18814257  0.47079168  0.89878253    -0.15000
C366        C  0.20168256  0.50498177  0.91982109    -0.15000
C367        C  0.20665465  0.50822051  0.97152994     0.07100
C368        C  0.19648516  0.47704318  0.00175329    -0.15000
H369        H  0.17706617  0.41904586  0.00510894     0.11100
H370        H  0.18569890  0.46867846  0.85877033     0.11100
H371        H  0.20895203  0.52858424  0.89553397     0.11100
H372        H  0.19982993  0.47849472  0.04169631     0.11100
C373        C  0.79534864  0.50060720  0.92811025    -0.15000
C374        C  0.77883055  0.49938319  0.97578761     0.07100
C375        C  0.77620395  0.53338071  0.00348582    -0.15000
C376        C  0.78860726  0.56812938  0.98334071    -0.15000
C377        C  0.80484411  0.56952494  0.93551108     0.07100
C378        C  0.80871749  0.53530564  0.90840312    -0.15000
H379        H  0.79785848  0.47474189  0.90609309     0.11100
H380        H  0.76344145  0.53328839  0.04022076     0.11100
H381        H  0.78525307  0.59402597  0.00511885     0.11100
H382        H  0.82088726  0.53558607  0.87134203     0.11100
C383        C  0.99609294  0.29654755  0.93041743    -0.15000
C384        C  0.99505604  0.28387141  0.97997257     0.07100
C385        C  0.02898223  0.28566124  0.00838274    -0.15000
C386        C  0.06350856  0.29830397  0.98721545    -0.15000
C387        C  0.06471807  0.31038256  0.93751686     0.07100
C388        C  0.03053603  0.31015085  0.90956874    -0.15000
H389        H  0.97034388  0.29572777  0.90772277     0.11100
H390        H  0.02916003  0.27605593  0.04660614     0.11100
H391        H  0.08943047  0.29830948  0.00962700     0.11100
H392        H  0.03077546  0.31914304  0.87108719     0.11100
C393        C  0.86712013  0.24543951  0.19303651    -0.15000
C394        C  0.88306051  0.27566563  0.22059528     0.07100
C395        C  0.91651776  0.29380817  0.20272361    -0.15000
C396        C  0.93135638  0.28438815  0.15575822    -0.15000
C397        C  0.91295955  0.25663309  0.12617257     0.07100
C398        C  0.88194199  0.23596399  0.14649960    -0.15000
H399        H  0.84165965  0.23056799  0.20612618     0.11100
H400        H  0.92944037  0.31721001  0.22325594     0.11100
H401        H  0.95546939  0.30063669  0.14133024     0.11100
H402        H  0.86753524  0.21384956  0.12521783     0.11100
C403        C  0.79452915  0.41407641  0.19296301    -0.15000
C404        C  0.77338217  0.38326507  0.21282906     0.07100
C405        C  0.74122184  0.36963531  0.18658321    -0.15000
C406        C  0.73217121  0.38453217  0.13985490    -0.15000
C407        C  0.75483741  0.41364699  0.11852670     0.07100
C408        C  0.78522121  0.42926041  0.14640808    -0.15000
H409        H  0.81940416  0.42534484  0.21240638     0.11100
H410        H  0.72436366  0.34595715  0.20080080     0.11100
H411        H  0.70832841  0.37208786  0.11948578     0.11100
H412        H  0.80324008  0.45163544  0.13105853     0.11100
C413        C  0.79948122  0.47036387  0.39542673    -0.15000
C414        C  0.81233909  0.44040507  0.42591849     0.07100
C415        C  0.81366817  0.44608605  0.47752392    -0.15000
C416        C  0.80116596  0.48047338  0.49847450    -0.15000
C417        C  0.78656979  0.50991380  0.46835551     0.07100
C418        C  0.78651176  0.50474712  0.41646661    -0.15000
H419        H  0.79797669  0.46664246  0.35552576     0.11100
H420        H  0.82363836  0.42353878  0.50190816     0.11100
H421        H  0.80189771  0.48344959  0.53850057     0.11100
H422        H  0.77567089  0.52690694  0.39213477     0.11100
C423        C  0.96171721  0.31227934  0.40933627    -0.15000
C424        C  0.92770249  0.31182989  0.43768758     0.07100
C425        C  0.92912598  0.29845785  0.48681745    -0.15000
C426        C  0.96378477  0.28549182  0.50712564    -0.15000
C427        C  0.99757506  0.28470812  0.47835184     0.07100
C428        C  0.99627387  0.29837977  0.42929442    -0.15000
H429        H  0.96128155  0.32211214  0.37120850     0.11100
H430        H  0.90329891  0.29774733  0.50944920     0.11100
H431        H  0.96388157  0.27499074  0.54495229     0.11100
H432        H  0.02194717  0.29825344  0.40637309     0.11100
C433        C  0.80072221  0.15997832  0.48234620    -0.15000
C434        C  0.77751241  0.13242986  0.45876906     0.07100
C435        C  0.76695492  0.13813994  0.40886608    -0.15000
C436        C  0.77672861  0.17235368  0.38459608    -0.15000
C437        C  0.79701152  0.20114403  0.41006719     0.07100
C438        C  0.81020279  0.19395312  0.45837120    -0.15000
H439        H  0.80993162  0.15622544  0.52046116     0.11100
H440        H  0.74909391  0.11740551  0.38973150     0.11100
H441        H  0.76607609  0.17741222  0.34738069     0.11100
H442        H  0.82624201  0.21555030  0.47862337     0.11100
C443        C  0.66417128  0.28644582  0.38874816    -0.15000
C444        C  0.69083015  0.31123622  0.41167846     0.07100
C445        C  0.68135070  0.32728179  0.45799289    -0.15000
C446        C  0.64772744  0.31619554  0.48272882    -0.15000
C447        C  0.62260679  0.28911321  0.46153855     0.07100
C448        C  0.63028009  0.27561597  0.41337104    -0.15000
H449        H  0.67058315  0.27355229  0.35307261     0.11100
H450        H  0.70110896  0.34653119  0.47665408     0.11100
H451        H  0.64233151  0.32745629  0.51960064     0.11100
H452        H  0.61148160  0.25471373  0.39610640     0.11100
C453        C  0.82843622  0.21869011  0.88846913    -0.15000
C454        C  0.80097454  0.19525486  0.91221474     0.07100
C455        C  0.80964790  0.18051138  0.95936543    -0.15000
C456        C  0.84328157  0.19147716  0.98394406    -0.15000
C457        C  0.86932227  0.21725515  0.96193809     0.07100
C458        C  0.86243912  0.22947405  0.91306531    -0.15000
H459        H  0.82262333  0.23053088  0.85209929     0.11100
H460        H  0.78932406  0.16228960  0.97869445     0.11100
H461        H  0.84801834  0.18105450  0.02130799     0.11100
H462        H  0.88199593  0.24928592  0.89512447     0.11100
C463        C  0.67744046  0.31482382  0.95048597    -0.15000
C464        C  0.69407647  0.30570389  0.90450976     0.07100
C465        C  0.71762267  0.33284468  0.88076006    -0.15000
C466        C  0.72735240  0.36710603  0.90516127    -0.15000
C467        C  0.71351663  0.37436971  0.95340211     0.07100
C468        C  0.68693101  0.34881133  0.97457080    -0.15000
H469        H  0.65890647  0.29448016  0.96927347     0.11100
H470        H  0.73095249  0.32622023  0.84537848     0.11100
H471        H  0.74788821  0.38634861  0.88801145     0.11100
H472        H  0.67524499  0.35395823  0.01131300     0.11100
C473        C  0.75181087  0.12868527  0.69184163    -0.15000
C474        C  0.71764552  0.11782646  0.71597061     0.07100
C475        C  0.69433690  0.08941158  0.69403334    -0.15000
C476        C  0.70343248  0.07443905  0.64719880    -0.15000
C477        C  0.73581808  0.08785753  0.62124388     0.07100
C478        C  0.76070290  0.11397964  0.64489194    -0.15000
H479        H  0.77045153  0.15034852  0.70775459     0.11100
H480        H  0.66788711  0.08024319  0.71181303     0.11100
H481        H  0.68372115  0.05436479  0.62997692     0.11100
H482        H  0.78613621  0.12455333  0.62598919     0.11100
C483        C  0.57671669  0.20809657  0.70056355    -0.15000
C484        C  0.60940840  0.22693668  0.71949702     0.07100
C485        C  0.62490913  0.25781914  0.69285506    -0.15000
C486        C  0.61027211  0.26756518  0.64635166    -0.15000
C487        C  0.57991621  0.24647521  0.62506500     0.07100
C488        C  0.56209990  0.21775222  0.65362009    -0.15000
H489        H  0.56422415  0.18412235  0.72031528     0.11100
H490        H  0.64981839  0.27317153  0.70677351     0.11100
H491        H  0.62426992  0.29033960  0.62589394     0.11100
H492        H  0.53854004  0.20109067  0.63845479     0.11100
C493        C  0.63058762  0.73176398  0.90553038    -0.15000
C494        C  0.62466578  0.72006377  0.95498031     0.07100
C495        C  0.65084775  0.69433537  0.97645780    -0.15000
C496        C  0.68405650  0.68343756  0.95112458    -0.15000
C497        C  0.69198448  0.69799202  0.90368608     0.07100
C498        C  0.66419225  0.72078401  0.87997496    -0.15000
H499        H  0.61077595  0.75149741  0.88799493     0.11100
H500        H  0.64674208  0.68417201  0.01408320     0.11100
H501        H  0.70492679  0.66558030  0.97004045     0.11100
H502        H  0.66990200  0.73262594  0.84355407     0.11100
C503        C  0.68443424  0.06184684  0.98155132    -0.15000
C504        C  0.68189539  0.06653443  0.92982900     0.07100
C505        C  0.69270063  0.03589232  0.89887741    -0.15000
C506        C  0.70708119  0.00184127  0.91924540    -0.15000
C507        C  0.71049665  0.99750626  0.97104413     0.07100
C508        C  0.69828250  0.02771064  0.00189918    -0.15000
H509        H  0.67634271  0.08491331  0.00640562     0.11100
H510        H  0.69135847  0.03874326  0.85886668     0.11100
H511        H  0.71601168  0.97911988  0.89435509     0.11100
H512        H  0.70041878  0.02546457  0.04190634     0.11100
C513        C  0.76750911  0.86609901  0.90619483    -0.15000
C514        C  0.78177181  0.87496847  0.95359606     0.07100
C515        C  0.80939541  0.85069937  0.97515754    -0.15000
C516        C  0.81988878  0.81647274  0.95202211    -0.15000
C517        C  0.80278963  0.80565474  0.90692059     0.07100
C518        C  0.77785460  0.83162052  0.88307694    -0.15000
H519        H  0.74616409  0.88426209  0.88876304     0.11100
H520        H  0.82124255  0.85710559  0.01145362     0.11100
H521        H  0.83944336  0.79735027  0.97112999     0.11100
H522        H  0.76431645  0.82419036  0.84813164     0.11100
C523        C  0.82877438  0.79014114  0.38726063    -0.15000
C524        C  0.80127558  0.81377766  0.41066233     0.07100
C525        C  0.81004525  0.82934844  0.45743914    -0.15000
C526        C  0.84381147  0.81885666  0.48211032    -0.15000
C527        C  0.86983043  0.79283568  0.46045933     0.07100
C528        C  0.86285686  0.77989191  0.41187571    -0.15000
H529        H  0.82291592  0.77766894  0.35119041     0.11100
H530        H  0.78967119  0.84774780  0.47646599     0.11100
H531        H  0.84865565  0.82973286  0.51929275     0.11100
H532        H  0.88237601  0.75982639  0.39425958     0.11100
C533        C  0.68308107  0.69400672  0.45341785    -0.15000
C534        C  0.69653588  0.70178975  0.40533640     0.07100
C535        C  0.71795269  0.67374193  0.38001431    -0.15000
C536        C  0.72866103  0.63984399  0.40436958    -0.15000
C537        C  0.71800247  0.63379266  0.45421770     0.07100
C538        C  0.69362704  0.66043014  0.47753177    -0.15000
H539        H  0.66616516  0.71501513  0.47354567     0.11100
H540        H  0.72883140  0.67926623  0.34299506     0.11100
H541        H  0.74735408  0.61973326  0.38541811     0.11100
H542        H  0.68428059  0.65631468  0.51555126     0.11100
C543        C  0.69812571  0.91721412  0.19221103    -0.15000
C544        C  0.71891426  0.88625008  0.21222227     0.07100
C545        C  0.75035506  0.87160103  0.18543744    -0.15000
C546        C  0.75908753  0.88566222  0.13823400    -0.15000
C547        C  0.73679706  0.91494587  0.11675370     0.07100
C548        C  0.70711975  0.93158026  0.14502708    -0.15000
H549        H  0.67374868  0.92917586  0.21204004     0.11100
H550        H  0.76687405  0.84771195  0.19965658     0.11100
H551        H  0.78243017  0.87242137  0.11771628     0.11100
H552        H  0.68945447  0.95418680  0.12964524     0.11100
C553        C  0.56420965  0.78819430  0.14998899    -0.15000
C554        C  0.58305838  0.76061906  0.12050303     0.07100
C555        C  0.61394207  0.74008084  0.14117087    -0.15000
C556        C  0.62790064  0.74921178  0.18828326    -0.15000
C557        C  0.61131857  0.77906582  0.21601918     0.07100
C558        C  0.57824679  0.79735057  0.19742144    -0.15000
H559        H  0.54019154  0.80438291  0.13527913     0.11100
H560        H  0.62871051  0.71817815  0.11991852     0.11100
H561        H  0.65315206  0.73428594  0.20183261     0.11100
H562        H  0.56490889  0.82053380  0.21794041     0.11100
C563        C  0.68244534  0.94398827  0.48083451    -0.15000
C564        C  0.68068525  0.93996724  0.42891409     0.07100
C565        C  0.69208970  0.97090423  0.39905061    -0.15000
C566        C  0.70632574  0.00460049  0.42070005    -0.15000
C567        C  0.70906395  0.00821685  0.47269499     0.07100
C568        C  0.69624206  0.97772111  0.50244581    -0.15000
H569        H  0.67387589  0.92066202  0.50489023     0.11100
H570        H  0.69136949  0.96853685  0.35894468     0.11100
H571        H  0.71574443  0.02757868  0.39663028     0.11100
H572        H  0.69780438  0.97943115  0.54255303     0.11100
C573        C  0.22569686  0.86632080  0.40370158    -0.15000
C574        C  0.21354434  0.87239121  0.45299350     0.07100
C575        C  0.18871798  0.84557979  0.47508383    -0.15000
C576        C  0.17962634  0.81160976  0.45083427    -0.15000
C577        C  0.19483992  0.80365465  0.40370117     0.07100
C578        C  0.21632175  0.83200312  0.37907987    -0.15000
H579        H  0.24474637  0.88658501  0.38571912     0.11100
H580        H  0.17815253  0.84974356  0.51258666     0.11100
H581        H  0.16252802  0.79041453  0.47028903     0.11100
H582        H  0.22842046  0.82636380  0.34269731     0.11100
C583        C  0.49593862  0.79513921  0.42767394    -0.15000
C584        C  0.49496780  0.78205833  0.47705276     0.07100
C585        C  0.52883652  0.78379356  0.50553138    -0.15000
C586        C  0.56317611  0.79722384  0.48479013    -0.15000
C587        C  0.56427778  0.81014817  0.43545013     0.07100
C588        C  0.53022418  0.80952420  0.40723537    -0.15000
H589        H  0.47022036  0.79425701  0.40492405     0.11100
H590        H  0.52906642  0.77376642  0.54357241     0.11100
H591        H  0.58903095  0.79731910  0.50733381     0.11100
H592        H  0.53043809  0.81896925  0.36893974     0.11100
C593        C  0.36193756  0.72861055  0.41128289    -0.15000
C594        C  0.36949178  0.71537061  0.45950618     0.07100
C595        C  0.34439874  0.68834076  0.48074808    -0.15000
C596        C  0.31093440  0.67698124  0.45601342    -0.15000
C597        C  0.30153659  0.69270722  0.40963135     0.07100
C598        C  0.32814348  0.71749010  0.38661443    -0.15000
H599        H  0.38076268  0.74945091  0.39401282     0.11100
H600        H  0.34974765  0.67723126  0.51763853     0.11100
H601        H  0.29122843  0.65773633  0.47472236     0.11100
H602        H  0.32174545  0.73014884  0.35087751     0.11100
C603        C  0.18397367  0.82227610  0.95882931    -0.15000
C604        C  0.19256243  0.80832358  0.91116809     0.07100
C605        C  0.16516823  0.78520881  0.88676388    -0.15000
C606        C  0.13133895  0.77383897  0.91116188    -0.15000
C607        C  0.12456374  0.78514216  0.96048376     0.07100
C608        C  0.15046695  0.81071132  0.98323747    -0.15000
H609        H  0.20431509  0.84018997  0.97865482     0.11100
H610        H  0.17092583  0.77402390  0.84995536     0.11100
H611        H  0.11186507  0.75423195  0.89263797     0.11100
H612        H  0.14577930  0.82041339  0.02099964     0.11100
C613        C  0.31105702  0.69218949  0.95663842    -0.15000
C614        C  0.29901563  0.69916209  0.90778086     0.07100
C615        C  0.27912021  0.67031327  0.88188894    -0.15000
C616        C  0.26830135  0.63645603  0.90633300    -0.15000
C617        C  0.27740029  0.63120705  0.95681385     0.07100
C618        C  0.30049766  0.65863635  0.98079086    -0.15000
H619        H  0.32683642  0.71377535  0.97725101     0.11100
H620        H  0.26939397  0.67515534  0.84420827     0.11100
H621        H  0.25069308  0.61572447  0.88680670     0.11100
H622        H  0.30874862  0.65520543  0.01931785     0.11100
C623        C  0.29290402  0.91386721  0.69372898    -0.15000
C624        C  0.27281583  0.88212402  0.71288162     0.07100
C625        C  0.24172856  0.86714300  0.68577058    -0.15000
C626        C  0.23285019  0.88165734  0.63883267    -0.15000
C627        C  0.25463467  0.91169637  0.61815348     0.07100
C628        C  0.28377335  0.92864531  0.64692356    -0.15000
H629        H  0.31693504  0.92614990  0.71389456     0.11100
H630        H  0.22573671  0.84269152  0.69943890     0.11100
H631        H  0.20991836  0.86819531  0.61782477     0.11100
H632        H  0.30102958  0.95182465  0.63214160     0.11100
C633        C  0.36853190  0.74490700  0.69165250    -0.15000
C634        C  0.38368101  0.77619347  0.71798596     0.07100
C635        C  0.41593959  0.79547970  0.69862882    -0.15000
C636        C  0.43043146  0.78582051  0.65158978    -0.15000
C637        C  0.41285711  0.75672311  0.62335141     0.07100
C638        C  0.38297300  0.73524918  0.64495582    -0.15000
H639        H  0.34395798  0.72921871  0.70589526     0.11100
H640        H  0.42814416  0.81977454  0.71812052     0.11100
H641        H  0.45361237  0.80279089  0.63606778     0.11100
H642        H  0.36923132  0.71220270  0.62462408     0.11100
C643        C  0.43082766  0.79823776  0.98447260    -0.15000
C644        C  0.42925760  0.81171847  0.93543537     0.07100
C645        C  0.46328682  0.81307929  0.90717442    -0.15000
C646        C  0.49806730  0.79981284  0.92714478    -0.15000
C647        C  0.49945686  0.78590527  0.97607150     0.07100
C648        C  0.46564727  0.78589881  0.00476949    -0.15000
H649        H  0.40498408  0.79691606  0.00702854     0.11100
H650        H  0.46270309  0.82308986  0.86912829     0.11100
H651        H  0.52379956  0.80027458  0.90434123     0.11100
H652        H  0.46585338  0.77519029  0.04249865     0.11100
C653        C  0.49579970  0.21161147  0.93031337    -0.15000
C654        C  0.49453664  0.22437886  0.97986423     0.07100
C655        C  0.52808860  0.22198119  0.00888446    -0.15000
C656        C  0.56249751  0.20835905  0.98840862    -0.15000
C657        C  0.56388783  0.19583483  0.93883970     0.07100
C658        C  0.53008062  0.19697808  0.91017022    -0.15000
H659        H  0.47030629  0.21295674  0.90719088     0.11100
H660        H  0.52802957  0.23171820  0.04710729     0.11100
H661        H  0.58817332  0.20785804  0.01127532     0.11100
H662        H  0.53052662  0.18784230  0.87170066     0.11100
C663        C  0.36473245  0.28272412  0.91198152    -0.15000
C664        C  0.37055960  0.29370978  0.96161799     0.07100
C665        C  0.34369626  0.31835479  0.98423861    -0.15000
C666        C  0.30995378  0.32878905  0.95960012    -0.15000
C667        C  0.30210722  0.31458396  0.91184566     0.07100
C668        C  0.33065969  0.29295038  0.88733736    -0.15000
H669        H  0.38500614  0.26388451  0.89352344     0.11100
H670        H  0.34769169  0.32786678  0.02220771     0.11100
H671        H  0.28880742  0.34577050  0.97943225     0.11100
H672        H  0.32556899  0.28175198  0.85038407     0.11100
C673        C  0.29299007  0.00495725  0.91914769    -0.15000
C674        C  0.28782142  0.00815056  0.97087249     0.07100
C675        C  0.29671732  0.97650786  0.00088224    -0.15000
C676        C  0.30887251  0.94206089  0.97963914    -0.15000
C677        C  0.31284006  0.93842906  0.92786384     0.07100
C678        C  0.30556668  0.97049135  0.89787566    -0.15000
H679        H  0.28666950  0.02888200  0.89497544     0.11100
H680        H  0.29314343  0.97789587  0.04080459     0.11100
H681        H  0.31438494  0.91794449  0.00383649     0.11100
H682        H  0.30830532  0.96856149  0.85787544     0.11100
C683        C  0.18340645  0.19143678  0.95204502    -0.15000
C684        C  0.19889898  0.20051222  0.90539307     0.07100
C685        C  0.22284686  0.17379220  0.88141109    -0.15000
C686        C  0.23370408  0.13995114  0.90583065    -0.15000
C687        C  0.22069181  0.13260638  0.95443326     0.07100
C688        C  0.19409649  0.15787982  0.97622464    -0.15000
H689        H  0.16465481  0.21145981  0.97113106     0.11100
H690        H  0.23541229  0.18037695  0.84558957     0.11100
H691        H  0.25421814  0.12094494  0.88812778     0.11100
H692        H  0.18302668  0.15271486  0.01324715     0.11100
C693        C  0.16325478  0.21964418  0.38309619    -0.15000
C694        C  0.19115013  0.19724949  0.40730575     0.07100
C695        C  0.18303090  0.18282722  0.45474023    -0.15000
C696        C  0.14937578  0.19325778  0.47941980    -0.15000
C697        C  0.12298741  0.21855092  0.45741198     0.07100
C698        C  0.12925552  0.23026744  0.40806618    -0.15000
H699        H  0.16909027  0.23137906  0.34665108     0.11100
H700        H  0.20394015  0.16527847  0.47406042     0.11100
H701        H  0.14507553  0.18312351  0.51702271     0.11100
H702        H  0.10936971  0.24973580  0.39017562     0.11100
C703        C  0.31753650  0.31481539  0.45684924    -0.15000
C704        C  0.30176433  0.30458771  0.41072626     0.07100
C705        C  0.27793527  0.33109224  0.38601241    -0.15000
C706        C  0.26733467  0.36554766  0.40906612    -0.15000
C707        C  0.28023980  0.37390070  0.45728213     0.07100
C708        C  0.30683701  0.34902298  0.47987669    -0.15000
H709        H  0.33620939  0.29528342  0.47670766     0.11100
H710        H  0.26545533  0.32414175  0.35025661     0.11100
H711        H  0.24689176  0.38418283  0.39071162     0.11100
H712        H  0.31777647  0.35496803  0.51676817     0.11100
C713        C  0.24402712  0.12957538  0.18871169    -0.15000
C714        C  0.27498450  0.11470697  0.21616998     0.07100
C715        C  0.29621733  0.08403451  0.19610775    -0.15000
C716        C  0.28863516  0.07078519  0.14779666    -0.15000
C717        C  0.25971963  0.08804062  0.11883560     0.07100
C718        C  0.23648232  0.11641599  0.14072431    -0.15000
H719        H  0.22692438  0.15300387  0.20326174     0.11100
H720        H  0.32039704  0.07214585  0.21628392     0.11100
H721        H  0.30696794  0.04877840  0.13209107     0.11100
H722        H  0.21353499  0.12989119  0.11984659     0.11100
C723        C  0.41032461  0.20573914  0.19717743    -0.15000
C724        C  0.37880996  0.22574117  0.21756763     0.07100
C725        C  0.36462618  0.25795044  0.19245338    -0.15000
C726        C  0.37961482  0.26819222  0.14622026    -0.15000
C727        C  0.40933739  0.24664600  0.12416166     0.07100
C728        C  0.42557287  0.21620821  0.15098814    -0.15000
H729        H  0.42199715  0.18084284  0.21576271     0.11100
H730        H  0.34042134  0.27398275  0.20711894     0.11100
H731        H  0.36671971  0.29208118  0.12677043     0.11100
H732        H  0.44850256  0.19908018  0.13507307     0.11100
C733        C  0.46386707  0.19699976  0.40384317    -0.15000
C734        C  0.43170238  0.18798389  0.43336532     0.07100
C735        C  0.43451328  0.19261993  0.48515857    -0.15000
C736        C  0.46816651  0.20702212  0.50681451    -0.15000
C737        C  0.49980320  0.21759888  0.47721252     0.07100
C738        C  0.49747635  0.21185021  0.42550522    -0.15000
H739        H  0.46256756  0.19391633  0.36384641     0.11100
H740        H  0.41028953  0.18590812  0.50902197     0.11100
H741        H  0.46890012  0.21095355  0.54670699     0.11100
H742        H  0.52142766  0.21938803  0.40161920     0.11100
C743        C  0.29404627  0.06519841  0.48664779    -0.15000
C744        C  0.30538909  0.06799085  0.43671934     0.07100
C745        C  0.30452194  0.03502393  0.40676222    -0.15000
C746        C  0.29112384  0.00018982  0.42595104    -0.15000
C747        C  0.27929929  0.99750757  0.47579972     0.07100
C748        C  0.28164096  0.03022887  0.50615390    -0.15000
H749        H  0.29447778  0.09020117  0.51051245     0.11100
H750        H  0.31285544  0.03653840  0.36802894     0.11100
H751        H  0.28985028  0.97541218  0.40176268     0.11100
H752        H  0.27267549  0.02912062  0.54466775     0.11100
loop_ 
_geom_bond_atom_site_label_1 
_geom_bond_atom_site_label_2 
_geom_bond_distance 
_geom_bond_site_symmetry_2 
_ccdc_geom_bond_type 
O1           C16   1.262       .  A
O1           Al9   1.899       .  S
C2           O12   1.259       .  A
C2            O3   1.265       .  A
C2          C744   1.478       .  S
O3           Al5   1.925       .  S
O4            C6   1.262       .  A
O4           Al5   1.909       .  S
Al5          O13   1.911       .  S
Al5          O15   1.904       .  S
Al5          O14   1.796       .  S
C6           O19   1.261       .  A
C6          C714   1.483       .  S
O7           C17   1.262       .  A
O7           Al9   1.914       .  S
O8           C21   1.262       .  A
O8          Al18   1.901       .  S
Al9          O22   1.912       .  S
Al9          O19   1.900       .  S
Al9          O14   1.795       .  S
O10          C17   1.260       .  A
O10         Al18   1.891       .  S
O11          C20   1.257       .  A
O11         Al18   1.900       .  S
O12         Al18   1.885       .  S
O13          C20   1.260       .  A
O14         Al18   1.790       .  S
O15          C16   1.262       .  A
C16         C724   1.480       .  S
C17         C694   1.475       .  S
C20         C734   1.485       .  S
C21          O22   1.261       .  A
C21         C704   1.483       .  S
C23         C674   1.485       .  S
C23          N24   1.365   1_556  A
C23          N28   1.364       .  A
N24          C25   1.359       .  A
C25         C717   1.486       .  S
C25          N26   1.356       .  A
N26          C27   1.357   1_554  A
C27         C687   1.482       .  S
C27          N28   1.359       .  A
C29         C654   1.482   1_554  S
C29          N30   1.363       .  A
C29          N34   1.364   1_554  A
N30          C31   1.359       .  A
C31         C727   1.482       .  S
C31          N32   1.354       .  A
N32          C33   1.355   1_554  A
C33         C664   1.481       .  S
C33          N34   1.362       .  A
O35          C50   1.262       .  A
O35         Al43   1.912       .  S
C36          O46   1.259       .  A
C36          O37   1.258       .  A
C36         C677   1.482       .  S
O37         Al39   1.901       .  S
O38          C40   1.261       .  A
O38         Al39   1.896       .  S
Al39         O47   1.876       .  S
Al39         O49   1.892       .  S
Al39         O48   1.786       .  S
C40          O53   1.262       .  A
C40         C604   1.482       .  S
O41          C51   1.263       .  A
O41         Al43   1.903       .  S
O42          C55   1.261       .  A
O42         Al52   1.903       .  S
Al43         O56   1.900       .  S
Al43         O53   1.916       .  S
Al43         O48   1.793       .  S
O44          C51   1.262       .  A
O44         Al52   1.903       .  S
O45          C54   1.264       .  A
O45         Al52   1.923       .  S
O46         Al52   1.906       .  S
O47          C54   1.257       .  A
O48         Al52   1.793       .  S
O49          C50   1.260       .  A
C50         C614   1.475       .  S
C51         C624   1.480       .  S
C54         C644   1.475       .  S
C55          O56   1.261       .  A
C55         C634   1.479       .  S
C57         C584   1.482       .  S
C57          N58   1.364       .  A
C57          N62   1.363       .  A
N58          C59   1.361       .  A
C59         C594   1.481       .  S
C59          N60   1.355       .  A
N60          C61   1.355       .  A
C61         C637   1.483       .  S
C61          N62   1.358       .  A
C63         C747   1.483       .  S
C63          N64   1.365       .  A
C63          N68   1.364       .  A
N64          C65   1.361       .  A
C65         C574   1.481       .  S
C65          N66   1.355       .  A
N66          C67   1.352       .  A
C67         C627   1.483       .  S
C67          N68   1.359       .  A
O69          C84   1.262       .  A
O69         Al77   1.901       .  S
C70          O80   1.258       .  A
C70          O71   1.260       .  A
C70         C564   1.483       .  S
O71         Al73   1.910       .  S
O72          C74   1.262       .  A
O72         Al73   1.909       .  S
Al73         O81   1.932       .  S
Al73         O83   1.907       .  S
Al73         O82   1.793       .  S
C74          O87   1.264       .  A
C74         C544   1.482       .  S
O75          C85   1.263       .  A
O75         Al77   1.920       .  S
O76          C89   1.259       .  A
O76         Al86   1.890       .  S
Al77         O90   1.912       .  S
Al77         O87   1.903       .  S
Al77         O82   1.792       .  S
O78          C85   1.261       .  A
O78         Al86   1.898       .  S
O79          C88   1.257       .  A
O79         Al86   1.878       .  S
O80         Al86   1.902       .  S
O81          C88   1.266       .  A
O82         Al86   1.787       .  S
O83          C84   1.262       .  A
C84         C557   1.481       .  S
C85         C524   1.484       .  S
C88         C587   1.479       .  S
C89          O90   1.262       .  A
C89         C534   1.474       .  S
C91         C507   1.489       .  S
C91          N92   1.365   1_556  A
C91          N96   1.365       .  A
N92          C93   1.360       .  A
C93         C547   1.485       .  S
C93          N94   1.353       .  A
N94          C95   1.354   1_554  A
C95         C514   1.479       .  S
C95          N96   1.361       .  A
C97         C647   1.477       .  S
C97          N98   1.363       .  A
C97         N102   1.362   1_556  A
N98          C99   1.359       .  A
C99         C494   1.481       .  S
C99         N100   1.357   1_556  A
N100        C101   1.356       .  A
C101        C554   1.485       .  S
C101        N102   1.358       .  A
O103        C118   1.264       .  A
O103       Al111   1.906       .  S
C104        O114   1.256       .  A
C104        O105   1.264       .  A
C104        C657   1.479       .  S
O105       Al107   1.927       .  S
O106        C108   1.261       .  A
O106       Al107   1.905       .  S
Al107       O115   1.906       .  S
Al107       O117   1.905       .  S
Al107       O116   1.793       .  S
C108        O121   1.262       .  A
C108        C484   1.480       .  S
O109        C119   1.262       .  A
O109       Al111   1.908       .  S
O110        C123   1.260       .  A
O110       Al120   1.895       .  S
Al111       O124   1.920       .  S
Al111       O121   1.905       .  S
Al111       O116   1.794       .  S
O112        C119   1.262       .  A
O112       Al120   1.897       .  S
O113        C122   1.260       .  A
O113       Al120   1.910       .  S
O114       Al120   1.880       .  S
O115        C122   1.260       .  A
O116       Al120   1.787       .  S
O117        C118   1.262       .  A
C118        C474   1.482       .  S
C119        C464   1.473       .  S
C122        C504   1.484       .  S
C123        O124   1.262       .  A
C123        C454   1.484       .  S
C125        C737   1.488       .  S
C125        N126   1.365       .  A
C125        N130   1.364       .  A
N126        C127   1.361       .  A
C127        C487   1.486       .  S
C127        N128   1.356       .  A
N128        C129   1.355       .  A
C129        C447   1.482       .  S
C129        N130   1.360       .  A
C131        C567   1.488       .  S
C131        N132   1.364       .  A
C131        N136   1.365       .  A
N132        C133   1.360       .  A
C133        C434   1.481       .  S
C133        N134   1.355       .  A
N134        C135   1.353       .  A
C135        C477   1.482       .  S
C135        N136   1.360       .  A
O137        C152   1.262       .  A
O137       Al145   1.910       .  S
C138        O148   1.259       .  A
C138        O139   1.259       .  A
C138        C414   1.478       .  S
O139       Al141   1.903       .  S
O140        C142   1.261       .  A
O140       Al141   1.899       .  S
Al141       O149   1.879       .  S
Al141       O151   1.895       .  S
Al141       O150   1.787       .  S
C142        O155   1.263       .  A
C142        C444   1.484       .  S
O143        C153   1.264       .  A
O143       Al145   1.907       .  S
O144        C157   1.260       .  A
O144       Al154   1.901       .  S
Al145       O158   1.905       .  S
Al145       O155   1.919       .  S
Al145       O150   1.791       .  S
O146        C153   1.262       .  A
O146       Al154   1.907       .  S
O147        C156   1.265       .  A
O147       Al154   1.927       .  S
O148       Al154   1.902       .  S
O149        C156   1.257       .  A
O150       Al154   1.792       .  S
O151        C152   1.260       .  A
C152        C437   1.474       .  S
C153        C404   1.483       .  S
C156        C424   1.478       .  S
C157        O158   1.262       .  A
C157        C394   1.479       .  S
C159        C384   1.484   1_554  S
C159        N160   1.365   1_554  A
C159        N164   1.364       .  A
N160        C161   1.361       .  A
C161        C457   1.483       .  S
C161        N162   1.354   1_556  A
N162        C163   1.354       .  A
C163        C397   1.484       .  S
C163        N164   1.359       .  A
C165        C374   1.481       .  S
C165        N166   1.364   1_556  A
C165        N170   1.364       .  A
N166        C167   1.360       .  A
C167        C407   1.484       .  S
C167        N168   1.353       .  A
N168        C169   1.356   1_554  A
C169        C467   1.479       .  S
C169        N170   1.360       .  A
O171        C186   1.263       .  A
O171       Al179   1.909       .  S
C172        O182   1.260       .  A
C172        O173   1.259       .  A
C172        C364   1.480       .  S
O173       Al175   1.901       .  S
O174        C176   1.262       .  A
O174       Al175   1.906       .  S
Al175       O183   1.928       .  S
Al175       O185   1.899       .  S
Al175       O184   1.793       .  S
C176        O189   1.263       .  A
C176        C354   1.481       .  S
O177        C187   1.262       .  A
O177       Al179   1.919       .  S
O178        C191   1.261       .  A
O178       Al188   1.896       .  S
Al179       O192   1.912       .  S
Al179       O189   1.904       .  S
Al179       O184   1.793       .  S
O180        C187   1.260       .  A
O180       Al188   1.895       .  S
O181        C190   1.258       .  A
O181       Al188   1.882       .  S
O182       Al188   1.904       .  S
O183        C190   1.264       .  A
O184       Al188   1.786       .  S
O185        C186   1.261       .  A
C186        C347   1.480       .  S
C187        C667   1.483       .  S
C190        C387   1.479       .  S
C191        O192   1.262       .  A
C191        C684   1.475       .  S
C193        C334   1.489       .  S
C193        N194   1.366       .  A
C193        N198   1.364       .  A
N194        C195   1.362       .  A
C195        C707   1.481       .  S
C195        N196   1.354       .  A
N196        C197   1.353       .  A
C197        C357   1.482       .  S
C197        N198   1.359       .  A
C199        C427   1.480   1_455  S
C199        N200   1.364       .  A
C199        N204   1.365       .  A
N200        C201   1.359       .  A
C201        C344   1.485       .  S
C201        N202   1.354       .  A
N202        C203   1.355       .  A
C203        C697   1.482       .  S
C203        N204   1.360       .  A
O205        C220   1.262       .  A
O205       Al213   1.911       .  S
C206        O216   1.259       .  A
C206        O207   1.260       .  A
C206        C337   1.485       .  S
O207       Al209   1.908       .  S
O208        C210   1.261       .  A
O208       Al209   1.898       .  S
Al209       O217   1.879       .  S
Al209       O219   1.896       .  S
Al209       O218   1.783       .  S
C210        O223   1.262       .  A
C210        C597   1.483       .  S
O211        C221   1.264       .  A
O211       Al213   1.902       .  S
O212        C225   1.260       .  A
O212       Al222   1.902       .  S
Al213       O226   1.900       .  S
Al213       O223   1.918       .  S
Al213       O218   1.792       .  S
O214        C221   1.264       .  A
O214       Al222   1.911       .  S
O215        C224   1.266       .  A
O215       Al222   1.932       .  S
O216       Al222   1.907       .  S
O217        C224   1.257       .  A
O218       Al222   1.792       .  S
O219        C220   1.262       .  A
C220        C577   1.474       .  S
C221        C314   1.481       .  S
C224        C327   1.483       .  S
C225        O226   1.261       .  A
C225        C304   1.477       .  S
C227        C297   1.484       .  S
C227        N228   1.364       .  A
C227        N232   1.364   1_556  A
N228        C229   1.360       .  A
C229        C607   1.481       .  S
C229        N230   1.354   1_556  A
N230        C231   1.354       .  A
C231        C307   1.483       .  S
C231        N232   1.359       .  A
C233        C367   1.484       .  S
C233        N234   1.363   1_556  A
C233        N238   1.364       .  A
N234        C235   1.357       .  A
C235        C317   1.481       .  S
C235        N236   1.353       .  A
N236        C237   1.356   1_554  A
C237        C617   1.482       .  S
C237        N238   1.361       .  A
O239        C254   1.263       .  A
O239       Al247   1.898       .  S
C240        O250   1.259       .  A
C240        O241   1.266       .  A
C240        C377   1.482       .  S
O241       Al243   1.931       .  S
O242        C244   1.260       .  A
O242       Al243   1.905       .  S
Al243       O251   1.905       .  S
Al243       O253   1.913       .  S
Al243       O252   1.795       .  S
C244        O257   1.260       .  A
C244        C284   1.479       .  S
O245        C255   1.263       .  A
O245       Al247   1.915       .  S
O246        C259   1.262       .  A
O246       Al256   1.900       .  S
Al247       O260   1.911       .  S
Al247       O257   1.896       .  S
Al247       O252   1.794       .  S
O248        C255   1.259       .  A
O248       Al256   1.889       .  S
O249        C258   1.257       .  A
O249       Al256   1.898       .  S
O250       Al256   1.882       .  S
O251        C258   1.258       .  A
O252       Al256   1.787       .  S
O253        C254   1.264       .  A
C254        C274   1.482       .  S
C255        C497   1.474       .  S
C258        C294   1.483       .  S
C259        O260   1.261       .  A
C259        C517   1.481       .  S
C261        C417   1.484       .  S
C261        N262   1.364       .  A
C261        N266   1.363       .  A
N262        C263   1.358       .  A
C263        C287   1.483       .  S
C263        N264   1.355       .  A
N264        C265   1.356       .  A
C265        C537   1.481       .  S
C265        N266   1.359       .  A
C267        C324   1.481       .  S
C267        N268   1.364       .  A
C267        N272   1.362       .  A
N268        C269   1.362       .  A
C269        C527   1.483       .  S
C269        N270   1.356       .  A
N270        C271   1.355       .  A
C271        C277   1.482       .  S
C271        N272   1.359       .  A
C273        C274   1.404       .  A
C273        C278   1.397       .  A
C273        H279   1.083       .  S
C274        C275   1.408       .  A
C275        C276   1.401       .  A
C275        H280   1.083       .  S
C276        C277   1.405       .  A
C276        H281   1.083       .  S
C277        C278   1.406       .  A
C278        H282   1.083       .  S
C283        C284   1.406       .  A
C283        C288   1.404       .  A
C283        H289   1.083       .  S
C284        C285   1.404       .  A
C285        C286   1.394       .  A
C285        H290   1.083       .  S
C286        C287   1.405       .  A
C286        H291   1.083       .  S
C287        C288   1.407       .  A
C288        H292   1.083       .  S
C293        C294   1.406       .  A
C293        C298   1.397   1_556  A
C293        H299   1.083   1_556  S
C294        C295   1.405       .  A
C295        C296   1.402       .  A
C295        H300   1.083       .  S
C296        C297   1.407   1_655  A
C296        H301   1.083   1_655  S
C297        C298   1.405   1_456  A
C298        H302   1.083       .  S
C303        C304   1.406       .  A
C303        C308   1.403       .  A
C303        H309   1.083       .  S
C304        C305   1.402       .  A
C305        C306   1.392       .  A
C305        H310   1.083       .  S
C306        C307   1.406       .  A
C306        H311   1.083       .  S
C307        C308   1.407       .  A
C308        H312   1.083       .  S
C313        C314   1.408       .  A
C313        C318   1.400       .  A
C313        H319   1.083       .  S
C314        C315   1.404       .  A
C315        C316   1.397       .  A
C315        H320   1.083       .  S
C316        C317   1.406       .  A
C316        H321   1.083       .  S
C317        C318   1.404       .  A
C318        H322   1.083       .  S
C323        C324   1.406       .  A
C323        C328   1.404   1_655  A
C323        H329   1.083       .  S
C324        C325   1.404   1_655  A
C325        C326   1.398       .  A
C325        H330   1.083       .  S
C326        C327   1.406       .  A
C326        H331   1.083       .  S
C327        C328   1.406       .  A
C328        H332   1.083       .  S
C333        C334   1.408       .  A
C333        C338   1.404       .  A
C333        H339   1.083       .  S
C334        C335   1.406       .  A
C335        C336   1.398       .  A
C335        H340   1.083       .  S
C336        C337   1.405       .  A
C336        H341   1.083       .  S
C337        C338   1.406       .  A
C338        H342   1.083       .  S
C343        C344   1.406       .  A
C343        C348   1.403       .  A
C343        H349   1.083       .  S
C344        C345   1.407       .  A
C345        C346   1.394       .  A
C345        H350   1.083       .  S
C346        C347   1.403       .  A
C346        H351   1.083       .  S
C347        C348   1.407       .  A
C348        H352   1.083       .  S
C353        C354   1.408       .  A
C353        C358   1.400       .  A
C353        H359   1.083       .  S
C354        C355   1.403       .  A
C355        C356   1.397       .  A
C355        H360   1.083       .  S
C356        C357   1.408       .  A
C356        H361   1.083       .  S
C357        C358   1.404       .  A
C358        H362   1.083       .  S
C363        C364   1.405       .  A
C363        C368   1.395   1_556  A
C363        H369   1.083   1_556  S
C364        C365   1.406       .  A
C365        C366   1.402       .  A
C365        H370   1.083       .  S
C366        C367   1.407       .  A
C366        H371   1.083       .  S
C367        C368   1.405   1_556  A
C368        H372   1.083       .  S
C373        C374   1.406       .  A
C373        C378   1.403       .  A
C373        H379   1.083       .  S
C374        C375   1.404   1_556  A
C375        C376   1.398   1_554  A
C375        H380   1.083       .  S
C376        C377   1.406       .  A
C376        H381   1.083   1_556  S
C377        C378   1.406       .  A
C378        H382   1.083       .  S
C383        C384   1.407       .  A
C383        C388   1.403   1_655  A
C383        H389   1.083       .  S
C384        C385   1.405   1_656  A
C385        C386   1.398   1_554  A
C385        H390   1.083       .  S
C386        C387   1.404       .  A
C386        H391   1.083   1_556  S
C387        C388   1.405       .  A
C388        H392   1.083       .  S
C393        C394   1.403       .  A
C393        C398   1.393       .  A
C393        H399   1.083       .  S
C394        C395   1.407       .  A
C395        C396   1.403       .  A
C395        H400   1.083       .  S
C396        C397   1.407       .  A
C396        H401   1.083       .  S
C397        C398   1.406       .  A
C398        H402   1.083       .  S
C403        C404   1.408       .  A
C403        C408   1.400       .  A
C403        H409   1.083       .  S
C404        C405   1.404       .  A
C405        C406   1.398       .  A
C405        H410   1.083       .  S
C406        C407   1.408       .  A
C406        H411   1.083       .  S
C407        C408   1.404       .  A
C408        H412   1.083       .  S
C413        C414   1.404       .  A
C413        C418   1.401       .  A
C413        H419   1.083       .  S
C414        C415   1.404       .  A
C415        C416   1.395       .  A
C415        H420   1.083       .  S
C416        C417   1.406       .  A
C416        H421   1.083       .  S
C417        C418   1.408       .  A
C418        H422   1.083       .  S
C423        C424   1.405       .  A
C423        C428   1.401       .  A
C423        H429   1.083       .  S
C424        C425   1.405       .  A
C425        C426   1.397       .  A
C425        H430   1.083       .  S
C426        C427   1.405       .  A
C426        H431   1.083       .  S
C427        C428   1.406       .  A
C428        H432   1.083   1_655  S
C433        C434   1.405       .  A
C433        C438   1.391       .  A
C433        H439   1.083       .  S
C434        C435   1.407       .  A
C435        C436   1.404       .  A
C435        H440   1.083       .  S
C436        C437   1.405       .  A
C436        H441   1.083       .  S
C437        C438   1.402       .  A
C438        H442   1.084       .  S
C443        C444   1.409       .  A
C443        C448   1.401       .  A
C443        H449   1.083       .  S
C444        C445   1.405       .  A
C445        C446   1.397       .  A
C445        H450   1.083       .  S
C446        C447   1.406       .  A
C446        H451   1.083       .  S
C447        C448   1.404       .  A
C448        H452   1.083       .  S
C453        C454   1.409       .  A
C453        C458   1.404       .  A
C453        H459   1.083       .  S
C454        C455   1.404       .  A
C455        C456   1.395       .  A
C455        H460   1.083       .  S
C456        C457   1.406       .  A
C456        H461   1.083   1_556  S
C457        C458   1.405       .  A
C458        H462   1.083       .  S
C463        C464   1.401       .  A
C463        C468   1.391       .  A
C463        H469   1.084       .  S
C464        C465   1.406       .  A
C465        C466   1.405       .  A
C465        H470   1.083       .  S
C466        C467   1.407       .  A
C466        H471   1.083       .  S
C467        C468   1.404       .  A
C468        H472   1.083   1_556  S
C473        C474   1.403       .  A
C473        C478   1.398       .  A
C473        H479   1.083       .  S
C474        C475   1.409       .  A
C475        C476   1.400       .  A
C475        H480   1.083       .  S
C476        C477   1.403       .  A
C476        H481   1.083       .  S
C477        C478   1.407       .  A
C478        H482   1.083       .  S
C483        C484   1.406       .  A
C483        C488   1.404       .  A
C483        H489   1.083       .  S
C484        C485   1.403       .  A
C485        C486   1.394       .  A
C485        H490   1.083       .  S
C486        C487   1.407       .  A
C486        H491   1.083       .  S
C487        C488   1.408       .  A
C488        H492   1.083       .  S
C493        C494   1.408       .  A
C493        C498   1.406       .  A
C493        H499   1.083       .  S
C494        C495   1.404       .  A
C495        C496   1.391       .  A
C495        H500   1.083   1_556  S
C496        C497   1.403       .  A
C496        H501   1.084       .  S
C497        C498   1.405       .  A
C498        H502   1.083       .  S
C503        C504   1.405       .  A
C503        C508   1.399   1_556  A
C503        H509   1.083   1_556  S
C504        C505   1.406       .  A
C505        C506   1.403       .  A
C505        H510   1.083       .  S
C506        C507   1.408   1_545  A
C506        H511   1.083   1_545  S
C507        C508   1.407   1_566  A
C508        H512   1.083       .  S
C513        C514   1.403       .  A
C513        C518   1.401       .  A
C513        H519   1.083       .  S
C514        C515   1.406       .  A
C515        C516   1.395       .  A
C515        H520   1.083   1_556  S
C516        C517   1.403       .  A
C516        H521   1.083       .  S
C517        C518   1.409       .  A
C518        H522   1.083       .  S
C523        C524   1.409       .  A
C523        C528   1.403       .  A
C523        H529   1.083       .  S
C524        C525   1.404       .  A
C525        C526   1.396       .  A
C525        H530   1.083       .  S
C526        C527   1.406       .  A
C526        H531   1.083       .  S
C527        C528   1.404       .  A
C528        H532   1.083       .  S
C533        C534   1.403       .  A
C533        C538   1.391       .  A
C533        H539   1.084       .  S
C534        C535   1.405       .  A
C535        C536   1.405       .  A
C535        H540   1.083       .  S
C536        C537   1.408       .  A
C536        H541   1.083       .  S
C537        C538   1.404       .  A
C538        H542   1.083       .  S
C543        C544   1.408       .  A
C543        C548   1.402       .  A
C543        H549   1.083       .  S
C544        C545   1.403       .  A
C545        C546   1.396       .  A
C545        H550   1.083       .  S
C546        C547   1.408       .  A
C546        H551   1.083       .  S
C547        C548   1.405       .  A
C548        H552   1.083       .  S
C553        C554   1.408       .  A
C553        C558   1.403       .  A
C553        H559   1.083       .  S
C554        C555   1.405       .  A
C555        C556   1.394       .  A
C555        H560   1.083       .  S
C556        C557   1.404       .  A
C556        H561   1.083       .  S
C557        C558   1.406       .  A
C558        H562   1.083       .  S
C563        C564   1.406       .  A
C563        C568   1.398       .  A
C563        H569   1.083       .  S
C564        C565   1.405       .  A
C565        C566   1.402   1_565  A
C565        H570   1.083       .  S
C566        C567   1.409       .  A
C566        H571   1.083       .  S
C567        C568   1.406   1_545  A
C568        H572   1.083       .  S
C573        C574   1.408       .  A
C573        C578   1.407       .  A
C573        H579   1.083       .  S
C574        C575   1.405       .  A
C575        C576   1.389       .  A
C575        H580   1.083       .  S
C576        C577   1.401       .  A
C576        H581   1.084       .  S
C577        C578   1.406       .  A
C578        H582   1.083       .  S
C583        C584   1.407       .  A
C583        C588   1.403       .  A
C583        H589   1.083       .  S
C584        C585   1.405       .  A
C585        C586   1.396       .  A
C585        H590   1.083       .  S
C586        C587   1.404       .  A
C586        H591   1.083       .  S
C587        C588   1.405       .  A
C588        H592   1.083       .  S
C593        C594   1.404       .  A
C593        C598   1.402       .  A
C593        H599   1.083       .  S
C594        C595   1.406       .  A
C595        C596   1.396       .  A
C595        H600   1.083       .  S
C596        C597   1.404       .  A
C596        H601   1.083       .  S
C597        C598   1.409       .  A
C598        H602   1.083       .  S
C603        C604   1.403       .  A
C603        C608   1.395       .  A
C603        H609   1.083       .  S
C604        C605   1.409       .  A
C605        C606   1.402       .  A
C605        H610   1.083       .  S
C606        C607   1.404       .  A
C606        H611   1.083       .  S
C607        C608   1.406       .  A
C608        H612   1.083   1_556  S
C613        C614   1.402       .  A
C613        C618   1.390       .  A
C613        H619   1.084       .  S
C614        C615   1.405       .  A
C615        C616   1.405       .  A
C615        H620   1.083       .  S
C616        C617   1.408       .  A
C616        H621   1.083       .  S
C617        C618   1.405       .  A
C618        H622   1.083   1_556  S
C623        C624   1.408       .  A
C623        C628   1.399       .  A
C623        H629   1.083       .  S
C624        C625   1.403       .  A
C625        C626   1.397       .  A
C625        H630   1.083       .  S
C626        C627   1.408       .  A
C626        H631   1.083       .  S
C627        C628   1.404       .  A
C628        H632   1.083       .  S
C633        C634   1.404       .  A
C633        C638   1.394       .  A
C633        H639   1.083       .  S
C634        C635   1.406       .  A
C635        C636   1.403       .  A
C635        H640   1.083       .  S
C636        C637   1.407       .  A
C636        H641   1.083       .  S
C637        C638   1.405       .  A
C638        H642   1.083       .  S
C643        C644   1.404       .  A
C643        C648   1.395   1_556  A
C643        H649   1.083   1_556  S
C644        C645   1.405       .  A
C645        C646   1.401       .  A
C645        H650   1.083       .  S
C646        C647   1.406       .  A
C646        H651   1.083       .  S
C647        C648   1.404   1_556  A
C648        H652   1.083       .  S
C653        C654   1.406       .  A
C653        C658   1.403       .  A
C653        H659   1.083       .  S
C654        C655   1.405   1_556  A
C655        C656   1.397   1_554  A
C655        H660   1.083       .  S
C656        C657   1.404       .  A
C656        H661   1.083   1_556  S
C657        C658   1.405       .  A
C658        H662   1.083       .  S
C663        C664   1.404       .  A
C663        C668   1.403       .  A
C663        H669   1.083       .  S
C664        C665   1.406       .  A
C665        C666   1.395       .  A
C665        H670   1.083   1_556  S
C666        C667   1.404       .  A
C666        H671   1.083       .  S
C667        C668   1.409       .  A
C668        H672   1.083       .  S
C673        C674   1.408       .  A
C673        C678   1.402   1_545  A
C673        H679   1.083       .  S
C674        C675   1.405   1_546  A
C675        C676   1.396   1_554  A
C675        H680   1.083       .  S
C676        C677   1.406       .  A
C676        H681   1.083   1_556  S
C677        C678   1.405       .  A
C678        H682   1.083       .  S
C683        C684   1.403       .  A
C683        C688   1.392       .  A
C683        H689   1.084       .  S
C684        C685   1.405       .  A
C685        C686   1.405       .  A
C685        H690   1.083       .  S
C686        C687   1.408       .  A
C686        H691   1.083       .  S
C687        C688   1.404       .  A
C688        H692   1.083   1_556  S
C693        C694   1.406       .  A
C693        C698   1.406       .  A
C693        H699   1.083       .  S
C694        C695   1.402       .  A
C695        C696   1.391       .  A
C695        H700   1.084       .  S
C696        C697   1.405       .  A
C696        H701   1.083       .  S
C697        C698   1.408       .  A
C698        H702   1.083       .  S
C703        C704   1.403       .  A
C703        C708   1.395       .  A
C703        H709   1.083       .  S
C704        C705   1.410       .  A
C705        C706   1.402       .  A
C705        H710   1.083       .  S
C706        C707   1.404       .  A
C706        H711   1.083       .  S
C707        C708   1.407       .  A
C708        H712   1.083       .  S
C713        C714   1.404       .  A
C713        C718   1.395       .  A
C713        H719   1.083       .  S
C714        C715   1.407       .  A
C715        C716   1.405       .  A
C715        H720   1.083       .  S
C716        C717   1.407       .  A
C716        H721   1.083       .  S
C717        C718   1.406       .  A
C718        H722   1.083       .  S
C723        C724   1.408       .  A
C723        C728   1.400       .  A
C723        H729   1.083       .  S
C724        C725   1.403       .  A
C725        C726   1.396       .  A
C725        H730   1.083       .  S
C726        C727   1.407       .  A
C726        H731   1.083       .  S
C727        C728   1.405       .  A
C728        H732   1.083       .  S
C733        C734   1.405       .  A
C733        C738   1.403       .  A
C733        H739   1.083       .  S
C734        C735   1.407       .  A
C735        C736   1.398       .  A
C735        H740   1.083       .  S
C736        C737   1.405       .  A
C736        H741   1.083       .  S
C737        C738   1.409       .  A
C738        H742   1.083       .  S
C743        C744   1.404       .  A
C743        C748   1.398       .  A
C743        H749   1.083       .  S
C744        C745   1.405       .  A
C745        C746   1.402       .  A
C745        H750   1.083       .  S
C746        C747   1.406   1_545  A
C746        H751   1.083   1_545  S
C747        C748   1.406   1_565  A
C748        H752   1.083       .  S
