geometry optimzed in LAMMPS
_audit_creation_date              2020-11-30 
_audit_creation_method            'lammps2cif' 
_symmetry_space_group_name_H-M    'P1' 
_symmetry_Int_Tables_number       1 
_symmetry_cell_setting            triclinic 
loop_ 
_symmetry_equiv_pos_as_xyz 
  x,y,z 
_cell_length_a                    34.59112313 
_cell_length_b                    34.70243702015773 
_cell_length_c                    71.55476659818521 
_cell_angle_alpha                 90.00014779261755 
_cell_angle_beta                  89.99914606549684 
_cell_angle_gamma                 90.00017275032894 
loop_ 
_atom_site_label 
_atom_site_type_symbol 
_atom_site_fract_x 
_atom_site_fract_y 
_atom_site_fract_z 
_atom_site_charge 
O1          O  0.11053286  0.48511784  0.35360098    -0.77600
C2          C  0.08845087  0.39754010  0.31122802     0.83400
O3          O  0.15664814  0.54184404  0.30080127    -0.78700
O4          O  0.04735196  0.47647523  0.26946789    -0.80200
O5          O  0.48409776  0.52916492  0.32390752    -0.80000
O6          O  0.05782308  0.51997297  0.35910341    -0.78600
Zn7        Zn  0.10888990  0.47504040  0.32627546     1.55700
O8          O  0.48339529  0.48571431  0.30079101    -0.80000
Cd9        Cd  0.04125583  0.53305871  0.33147554     1.59700
Cd10       Cd  0.09489711  0.54461282  0.29545957     1.59600
O11         O  0.04506288  0.59115342  0.32884724    -0.80000
O12         O  0.07221549  0.50482639  0.31241603    -1.90500
Cd13       Cd  0.04051703  0.46806280  0.29761814     1.59900
O14         O  0.05977343  0.59582757  0.29878813    -0.80000
O15         O  0.05820036  0.41004910  0.30275020    -0.78600
C16         C  0.17502532  0.51498068  0.30961445     0.83900
C17         C  0.08844619  0.50287304  0.36476745     0.83600
O18         O  0.10975134  0.41962688  0.32074272    -0.77600
C19         C  0.46683946  0.51154047  0.31072332     0.84400
O20         O  0.15821695  0.48902989  0.31862429    -0.77700
C21         C  0.04241605  0.60875215  0.31335998     0.84500
C22         C  0.06418224  0.50240326  0.25995870     0.84800
O23         O  0.08414122  0.52909754  0.26763254    -0.80100
O24         O  0.36052857  0.48513131  0.35359857    -0.77600
C25         C  0.33844670  0.39755162  0.31122310     0.83400
O26         O  0.40665463  0.54185206  0.30080351    -0.78700
O27         O  0.29735937  0.47649805  0.26946322    -0.80200
O28         O  0.23409440  0.52916653  0.32390610    -0.80000
O29         O  0.30781647  0.51998198  0.35910142    -0.78600
Zn30       Zn  0.35888420  0.47505118  0.32627332     1.55700
O31         O  0.23339688  0.48572508  0.30078541    -0.80000
Cd32       Cd  0.29125160  0.53306864  0.33147318     1.59700
Cd33       Cd  0.34490371  0.54462936  0.29545876     1.59600
O34         O  0.29505149  0.59116363  0.32884595    -0.80000
O35         O  0.32221491  0.50484138  0.31241284    -1.90500
Cd36       Cd  0.29051993  0.46807907  0.29761221     1.59900
O37         O  0.30978368  0.59584667  0.29878925    -0.80000
O38         O  0.30820229  0.41006332  0.30274116    -0.78600
C39         C  0.42502703  0.51498335  0.30961542     0.83900
C40         C  0.33844067  0.50288395  0.36476535     0.83600
O41         O  0.35974117  0.41963648  0.32074201    -0.77600
C42         C  0.21683797  0.51154433  0.31072063     0.84400
O43         O  0.40821354  0.48903242  0.31862280    -0.77700
C44         C  0.29241712  0.60876720  0.31335952     0.84500
C45         C  0.31419126  0.50242637  0.25995493     0.84800
O46         O  0.33414980  0.52911996  0.26762980    -0.80100
O47         O  0.07656216  0.48515040  0.39583642    -0.77600
C48         C  0.09864573  0.39761930  0.43821058     0.83400
O49         O  0.03043215  0.54193765  0.44861179    -0.78700
O50         O  0.13970910  0.47658843  0.47996951    -0.80200
O51         O  0.20299183  0.52921866  0.42551352    -0.80000
O52         O  0.12925974  0.52001721  0.39032384    -0.78600
Zn53       Zn  0.07820050  0.47511031  0.42316216     1.55700
O54         O  0.20368626  0.48581010  0.44864879    -0.80000
Cd55       Cd  0.14583361  0.53313014  0.41795053     1.59700
Cd56       Cd  0.09218012  0.54470437  0.45396334     1.59600
O57         O  0.14206065  0.59123106  0.42058440    -0.80000
O58         O  0.11487297  0.50490925  0.43701517    -1.90500
Cd59       Cd  0.14656467  0.46815443  0.45182123     1.59900
O60         O  0.12732475  0.59590460  0.45064113    -0.80000
O61         O  0.12889120  0.41013148  0.44669202    -0.78600
C62         C  0.01205840  0.51505762  0.43980856     0.83900
C63         C  0.09864542  0.50289328  0.38466445     0.83600
O64         O  0.07734675  0.41970473  0.42869570    -0.77600
C65         C  0.22024623  0.51161598  0.43870568     0.84400
O66         O  0.02887048  0.48909291  0.43081000    -0.77700
C67         C  0.14470413  0.60882326  0.43607432     0.84500
C68         C  0.12286510  0.50251670  0.48947347     0.84800
O69         O  0.10290579  0.52920274  0.48179394    -0.80100
O70         O  0.32655472  0.48516162  0.39583439    -0.77600
C71         C  0.34864481  0.39762086  0.43820395     0.83400
O72         O  0.28043351  0.54193371  0.44861697    -0.78700
O73         O  0.38971564  0.47658074  0.47996649    -0.80200
O74         O  0.45299040  0.52922416  0.42551076    -0.80000
O75         O  0.37925678  0.52002164  0.39032187    -0.78600
Zn76       Zn  0.32819761  0.47511491  0.42315976     1.55700
O77         O  0.45368698  0.48580699  0.44864223    -0.80000
Cd78       Cd  0.39583110  0.53313312  0.41794869     1.59700
Cd79       Cd  0.34218277  0.54470183  0.45396385     1.59600
O80         O  0.39205455  0.59123363  0.42058367    -0.80000
O81         O  0.36487264  0.50490959  0.43701323    -1.90500
Cd82       Cd  0.39656607  0.46815191  0.45181691     1.59900
O83         O  0.37732504  0.59590340  0.45064127    -0.80000
O84         O  0.37889145  0.41013097  0.44668507    -0.78600
C85         C  0.26205858  0.51505635  0.43981247     0.83900
C86         C  0.34863976  0.50290250  0.38466246     0.83600
O87         O  0.32734470  0.41970814  0.42869064    -0.77600
C88         C  0.47024598  0.51161668  0.43870104     0.84400
O89         O  0.27886933  0.48909558  0.43081070    -0.77700
C90         C  0.39470120  0.60882400  0.43607396     0.84500
C91         C  0.37287412  0.50250935  0.48947137     0.84800
O92         O  0.35291545  0.52919689  0.48179280    -0.80100
O93         O  0.20152695  0.76888767  0.35361212    -0.77600
C94         C  0.22356538  0.85643053  0.31122421     0.83400
O95         O  0.15535838  0.71214592  0.30082198    -0.78700
O96         O  0.26459806  0.77743885  0.26944905    -0.80200
O97         O  0.32792094  0.72486722  0.32391267    -0.80000
O98         O  0.25425964  0.73406271  0.35910549    -0.78600
Zn99       Zn  0.20313911  0.77894238  0.32628419     1.55700
O100        O  0.32861404  0.76827040  0.30077466    -0.80000
Cd101      Cd  0.27077771  0.72094120  0.33147703     1.59700
Cd102      Cd  0.21709872  0.70935108  0.29547870     1.59600
O103        O  0.26701575  0.66284006  0.32885027    -0.80000
O104        O  0.23980242  0.74915393  0.31241786    -1.90500
Cd105      Cd  0.27147925  0.78589954  0.29759732     1.59900
O106        O  0.25222440  0.65814111  0.29880070    -0.80000
O107        O  0.25378794  0.84391664  0.30272394    -0.78600
C108        C  0.13698764  0.73902877  0.30962363     0.83900
C109        C  0.22364439  0.75116532  0.36477624     0.83600
O110        O  0.20229364  0.83435004  0.32075673    -0.77600
C111        C  0.34517606  0.74247339  0.31072295     0.84400
O112        O  0.15379993  0.76497971  0.31863223    -0.77700
C113        C  0.26962144  0.64523006  0.31336378     0.84500
C114        C  0.24774296  0.75150043  0.25995542     0.84800
O115        O  0.22779867  0.72481954  0.26764639    -0.80100
O116        O  0.45153193  0.76888575  0.35361226    -0.77600
C117        C  0.47356962  0.85642363  0.31122022     0.83400
O118        O  0.40535477  0.71214251  0.30082128    -0.78700
O119        O  0.01459861  0.77742431  0.26944843    -0.80200
O120        O  0.07792329  0.72486337  0.32391412    -0.80000
O121        O  0.00425987  0.73405404  0.35910640    -0.78600
Zn122      Zn  0.45314298  0.77893614  0.32628355     1.55700
O123        O  0.07861297  0.76826260  0.30077424    -0.80000
Cd124      Cd  0.02077970  0.72093096  0.33147783     1.59700
Cd125      Cd  0.46709635  0.70933860  0.29547938     1.59600
O126        O  0.01702405  0.66282881  0.32885094    -0.80000
O127        O  0.48980349  0.74914218  0.31241787    -1.90500
Cd128      Cd  0.02147892  0.78588815  0.29759618     1.59900
O129        O  0.50221680  0.65812426  0.29880308    -0.80000
O130        O  0.00379083  0.84390768  0.30271965    -0.78600
C131        C  0.38698685  0.73902787  0.30962268     0.83900
C132        C  0.47364725  0.75116191  0.36477689     0.83600
O133        O  0.45229909  0.83434435  0.32075413    -0.77600
C134        C  0.09517693  0.74246925  0.31072376     0.84400
O135        O  0.40380230  0.76497615  0.31863173    -0.77700
C136        C  0.01962017  0.64521527  0.31336498     0.84500
C137        C  0.99774385  0.75148531  0.25995508     0.84800
O138        O  0.47780008  0.72480441  0.26764645    -0.80100
O139        O  0.23561353  0.76888819  0.39583955    -0.77600
C140        C  0.21356905  0.85647164  0.43821269     0.83400
O141        O  0.28176830  0.71218240  0.44864424    -0.78700
O142        O  0.17250734  0.77751524  0.47999314    -0.80200
O143        O  0.10921358  0.72485434  0.42555547    -0.80000
O144        O  0.18285692  0.73409600  0.39034940    -0.78600
Zn145      Zn  0.23400053  0.77896913  0.42316656     1.55700
O146        O  0.10851430  0.76831845  0.44866626    -0.80000
Cd147      Cd  0.16635788  0.72096770  0.41797858     1.59700
Cd148      Cd  0.22002046  0.70939574  0.45398258     1.59600
O149        O  0.17018567  0.66287161  0.42059300    -0.80000
O150        O  0.19733178  0.74919211  0.43703451    -1.90500
Cd151      Cd  0.16564710  0.78594991  0.45184304     1.59900
O152        O  0.18488540  0.65818829  0.45065226    -0.80000
O153        O  0.18333922  0.84396169  0.44670807    -0.78600
C154        C  0.30014384  0.73905475  0.43983672     0.83900
C155        C  0.21348447  0.75117437  0.38467715     0.83600
O156        O  0.23485102  0.83438525  0.42868799    -0.77600
C157        C  0.09195552  0.74249168  0.43873475     0.84400
O158        O  0.28333487  0.76499956  0.43082259    -0.77700
C159        C  0.16752521  0.64527214  0.43607962     0.84500
C160        C  0.18934691  0.75158024  0.48949486     0.84800
O161        O  0.20929243  0.72488813  0.48181246    -0.80100
O162        O  0.48561626  0.76888823  0.39584031    -0.77600
C163        C  0.46357051  0.85647230  0.43821562     0.83400
O164        O  0.03176794  0.71217782  0.44864233    -0.78700
O165        O  0.42251008  0.77751231  0.47999332    -0.80200
O166        O  0.35921462  0.72485868  0.42555612    -0.80000
O167        O  0.43285861  0.73409756  0.39035036    -0.78600
Zn168      Zn  0.48400106  0.77897047  0.42316779     1.55700
O169        O  0.35851493  0.76831982  0.44866815    -0.80000
Cd170      Cd  0.41635861  0.72096992  0.41797937     1.59700
Cd171      Cd  0.47002071  0.70939321  0.45398224     1.59600
O172        O  0.42018266  0.66287321  0.42059309    -0.80000
O173        O  0.44733289  0.74919234  0.43703540    -1.90500
Cd174      Cd  0.41564868  0.78594969  0.45184427     1.59900
O175        O  0.43488412  0.65818722  0.45065198    -0.80000
O176        O  0.43334132  0.84396191  0.44671134    -0.78600
C177        C  0.05014334  0.73905245  0.43983637     0.83900
C178        C  0.46348702  0.75117413  0.38467797     0.83600
O179        O  0.48485131  0.83438655  0.42868997    -0.77600
C180        C  0.34195620  0.74249446  0.43873577     0.84400
O181        O  0.03333443  0.76500039  0.43082435    -0.77700
C182        C  0.41752280  0.64527254  0.43607942     0.84500
C183        C  0.43934870  0.75157624  0.48949461     0.84800
O184        O  0.45929372  0.72488396  0.48181215    -0.80100
O185        O  0.07649591  0.26884229  0.35359988    -0.77600
C186        C  0.09854104  0.35639975  0.31122492     0.83400
O187        O  0.03032275  0.21210879  0.30081517    -0.78700
O188        O  0.13956448  0.27740861  0.26944633    -0.80200
O189        O  0.20289093  0.22482266  0.32390182    -0.80000
O190        O  0.12924020  0.23403583  0.35909614    -0.78600
Zn191      Zn  0.07810468  0.27890516  0.32627474     1.55700
O192        O  0.20357818  0.26823781  0.30076949    -0.80000
Cd193      Cd  0.14574827  0.22090517  0.33146828     1.59700
Cd194      Cd  0.09206450  0.20931644  0.29547083     1.59600
O195        O  0.14197202  0.16280617  0.32884188    -0.80000
O196        O  0.11476856  0.24911782  0.31241064    -1.90500
Cd197      Cd  0.14644521  0.28586663  0.29759422     1.59900
O198        O  0.12720425  0.15811533  0.29878974    -0.80000
O199        O  0.12876372  0.34388483  0.30272529    -0.78600
C200        C  0.01195245  0.23899536  0.30961458     0.83900
C201        C  0.09862011  0.25113199  0.36476507     0.83600
O202        O  0.07726321  0.33431706  0.32075319    -0.77600
C203        C  0.22014279  0.24243591  0.31071344     0.84400
O204        O  0.02876554  0.26494836  0.31862133    -0.77700
C205        C  0.14459875  0.14520553  0.31335367     0.84500
C206        C  0.12271153  0.25147166  0.25995076     0.84800
O207        O  0.10276488  0.22478964  0.26763935    -0.80100
O208        O  0.32649440  0.26885511  0.35359493    -0.77600
C209        C  0.34853669  0.35641046  0.31121971     0.83400
O210        O  0.28032397  0.21211345  0.30080903    -0.78700
O211        O  0.38957830  0.27741868  0.26944410    -0.80200
O212        O  0.45288405  0.22481887  0.32389922    -0.80000
O213        O  0.37922412  0.23402564  0.35908983    -0.78600
Zn214      Zn  0.32810294  0.27891457  0.32626933     1.55700
O215        O  0.45358202  0.26824747  0.30077276    -0.80000
Cd216      Cd  0.39573936  0.22090322  0.33146235     1.59700
Cd217      Cd  0.34206546  0.20932524  0.29546440     1.59600
O218        O  0.39196047  0.16280512  0.32883302    -0.80000
O219        O  0.36476727  0.24912561  0.31240559    -1.90500
Cd220      Cd  0.39644926  0.28587698  0.29759270     1.59900
O221        O  0.37720381  0.15812100  0.29877980    -0.80000
O222        O  0.37876293  0.34389598  0.30272265    -0.78600
C223        C  0.26195318  0.23899625  0.30961086     0.83900
C224        C  0.34861041  0.25113239  0.36475930     0.83600
O225        O  0.32725616  0.33432680  0.32074609    -0.77600
C226        C  0.47014170  0.24243878  0.31071476     0.84400
O227        O  0.27876551  0.26494934  0.31861786    -0.77700
C228        C  0.39459289  0.14520727  0.31334435     0.84500
C229        C  0.37272277  0.25148451  0.25994773     0.84800
O230        O  0.35277011  0.22480551  0.26763506    -0.80100
O231        O  0.11058509  0.26887898  0.39582475    -0.77600
C232        C  0.08855253  0.35647947  0.43820951     0.83400
O233        O  0.15674657  0.21220874  0.44862284    -0.78700
O234        O  0.04749151  0.27749657  0.47998540    -0.80200
O235        O  0.48417847  0.22491487  0.42552988    -0.80000
O236        O  0.05783313  0.23407838  0.39033837    -0.78600
Zn237      Zn  0.10896138  0.27898245  0.42314919     1.55700
O238        O  0.48348832  0.26834268  0.44865694    -0.80000
Cd239      Cd  0.04131990  0.22098647  0.41796688     1.59700
Cd240      Cd  0.09500525  0.20940411  0.45396561     1.59600
O241        O  0.04509148  0.16289173  0.42059152    -0.80000
O242        O  0.07230240  0.24920078  0.43702215    -1.90500
Cd243      Cd  0.04062784  0.28595377  0.45183780     1.59900
O244        O  0.05988730  0.15818566  0.45064027    -0.80000
O245        O  0.05834066  0.34396451  0.44671792    -0.78600
C246        C  0.17511459  0.23909103  0.43981925     0.83900
C247        C  0.08846105  0.25115239  0.38466499     0.83600
O248        O  0.10980689  0.33440084  0.42866601    -0.77600
C249        C  0.46692397  0.24253800  0.43871415     0.84400
O250        O  0.15829994  0.26503564  0.43080760    -0.77700
C251        C  0.04249137  0.14527647  0.43607607     0.84500
C252        C  0.06434362  0.25156485  0.48948390     0.84800
O253        O  0.08429403  0.22488151  0.48179803    -0.80100
O254        O  0.36057527  0.26888305  0.39581801    -0.77600
C255        C  0.33855073  0.35648154  0.43820238     0.83400
O256        O  0.40674483  0.21221742  0.44862010    -0.78700
O257        O  0.29749410  0.27750586  0.47998121    -0.80200
O258        O  0.23417680  0.22490766  0.42553197    -0.80000
O259        O  0.30782705  0.23407476  0.39033396    -0.78600
Zn260      Zn  0.35895883  0.27898445  0.42314229     1.55700
O261        O  0.23349028  0.26834205  0.44865618    -0.80000
Cd262      Cd  0.29131710  0.22098475  0.41796397     1.59700
Cd263      Cd  0.34500411  0.20941059  0.45396192     1.59600
O264        O  0.29509612  0.16289051  0.42059014    -0.80000
O265        O  0.32230134  0.24920396  0.43701701    -1.90500
Cd266      Cd  0.29062863  0.28595743  0.45183320     1.59900
O267        O  0.30988541  0.15819161  0.45063968    -0.80000
O268        O  0.30833854  0.34396731  0.44671074    -0.78600
C269        C  0.42511339  0.23909610  0.43981423     0.83900
C270        C  0.33845203  0.25115281  0.38465931     0.83600
O271        O  0.35980553  0.33440245  0.42865939    -0.77600
C272        C  0.21692495  0.24253286  0.43871654     0.84400
O273        O  0.40829940  0.26503665  0.43079933    -0.77700
C274        C  0.29249178  0.14527905  0.43607562     0.84500
C275        C  0.31434500  0.25157371  0.48947984     0.84800
O276        O  0.33429429  0.22488969  0.48179394    -0.80100
O277        O  0.23553639  0.98516074  0.35359567    -0.77600
C278        C  0.21346935  0.89756842  0.31122426     0.83400
O279        O  0.28166339  0.04183708  0.30078374    -0.78700
O280        O  0.17236630  0.97648568  0.26944969    -0.80200
O281        O  0.10910193  0.02916508  0.32389572    -0.80000
O282        O  0.18280830  0.01998520  0.35909739    -0.78600
Zn283      Zn  0.23389361  0.97506994  0.32627199     1.55700
O284        O  0.10841090  0.98572735  0.30077338    -0.80000
Cd285      Cd  0.16625718  0.03306681  0.33146537     1.59700
Cd286      Cd  0.21990976  0.04462497  0.29544189     1.59600
O287        O  0.17006426  0.09115796  0.32883624    -0.80000
O288        O  0.19722627  0.00484677  0.31240335    -1.90500
Cd289      Cd  0.16553678  0.96808248  0.29760130     1.59900
O290        O  0.18478010  0.09583754  0.29877716    -0.80000
O291        O  0.18323353  0.91007434  0.30273327    -0.78600
C292        C  0.30003670  0.01497890  0.30960317     0.83900
C293        C  0.21343885  0.00290021  0.36476251     0.83600
O294        O  0.23474901  0.91965561  0.32074941    -0.77600
C295        C  0.09184890  0.01154529  0.31070843     0.84400
O296        O  0.28322430  0.98904130  0.31862006    -0.77700
C297        C  0.16741427  0.10875486  0.31334870     0.84500
C298        C  0.18919079  0.00241288  0.25993806     0.84800
O299        O  0.20914786  0.02911115  0.26761093    -0.80100
O300        O  0.48553744  0.98515102  0.35359310    -0.77600
C301        C  0.46347397  0.89756240  0.31121942     0.83400
O302        O  0.03166104  0.04184046  0.30078005    -0.78700
O303        O  0.42235697  0.97648261  0.26944756    -0.80200
O304        O  0.35910488  0.02915840  0.32389664    -0.80000
O305        O  0.43282172  0.01999451  0.35909451    -0.78600
Zn306      Zn  0.48389528  0.97506583  0.32626821     1.55700
O307        O  0.35840968  0.98571934  0.30077475    -0.80000
Cd308      Cd  0.41626120  0.03306843  0.33146247     1.59700
Cd309      Cd  0.46990682  0.04462317  0.29543798     1.59600
O310        O  0.42005622  0.09116030  0.32882844    -0.80000
O311        O  0.44722609  0.00484397  0.31240030    -1.90500
Cd312      Cd  0.41553537  0.96807676  0.29759952     1.59900
O313        O  0.43477585  0.09583661  0.29876974    -0.80000
O314        O  0.43323620  0.91006784  0.30272978    -0.78600
C315        C  0.05003575  0.01498421  0.30960024     0.83900
C316        C  0.46344659  0.00289941  0.36475984     0.83600
O317        O  0.48475483  0.91965068  0.32074349    -0.77600
C318        C  0.34184960  0.01153762  0.31071038     0.84400
O319        O  0.03322457  0.98904531  0.31861690    -0.77700
C320        C  0.41740809  0.10875569  0.31334039     0.84500
C321        C  0.43918273  0.00240870  0.25993573     0.84800
O322        O  0.45914324  0.02910493  0.26760815    -0.80100
O323        O  0.20155279  0.98516630  0.39583109    -0.77600
C324        C  0.22365752  0.89761206  0.43820887     0.83400
O325        O  0.15543374  0.04190024  0.44862268    -0.78700
O326        O  0.26471478  0.97657062  0.47997689    -0.80200
O327        O  0.32799980  0.02916973  0.42550315    -0.80000
O328        O  0.25425584  0.02002384  0.39032096    -0.78600
Zn329      Zn  0.20320685  0.97510310  0.42315662     1.55700
O330        O  0.32868638  0.98579543  0.44865349    -0.80000
Cd331      Cd  0.27084104  0.03310623  0.41794905     1.59700
Cd332      Cd  0.21718257  0.04468705  0.45396854     1.59600
O333        O  0.26709970  0.09120331  0.42058845    -0.80000
O334        O  0.23987539  0.00489829  0.43701625    -1.90500
Cd335      Cd  0.27156446  0.96814674  0.45182644     1.59900
O336        O  0.25230674  0.09590119  0.45063927    -0.80000
O337        O  0.25389228  0.91012894  0.44669698    -0.78600
C338        C  0.13706209  0.01502573  0.43981445     0.83900
C339        C  0.22363571  0.00291304  0.38466030     0.83600
O340        O  0.20236633  0.91969208  0.42868609    -0.77600
C341        C  0.34525064  0.01158284  0.43870130     0.84400
O342        O  0.15387529  0.98907223  0.43080867    -0.77700
C343        C  0.26970256  0.10881272  0.43607506     0.84500
C344        C  0.24787623  0.00250106  0.48948141     0.84800
O345        O  0.22792107  0.02918998  0.48180100    -0.80100
O346        O  0.45156016  0.98516194  0.39582824    -0.77600
C347        C  0.47365833  0.89761280  0.43821152     0.83400
O348        O  0.40543204  0.04190010  0.44861684    -0.78700
O349        O  0.01470368  0.97657947  0.47997853    -0.80200
O350        O  0.07800172  0.02916660  0.42550602    -0.80000
O351        O  0.00426224  0.02002172  0.39031969    -0.78600
Zn352      Zn  0.45321005  0.97510061  0.42315449     1.55700
O353        O  0.07868420  0.98580100  0.44866014    -0.80000
Cd354      Cd  0.02084424  0.03310261  0.41794900     1.59700
Cd355      Cd  0.46717833  0.04468784  0.45396629     1.59600
O356        O  0.01710388  0.09119977  0.42058792    -0.80000
O357        O  0.48987480  0.00489763  0.43701572    -1.90500
Cd358      Cd  0.02156126  0.96815044  0.45182937     1.59900
O359        O  0.50230392  0.09589973  0.45063788    -0.80000
O360        O  0.00388986  0.91013150  0.44670177    -0.78600
C361        C  0.38706207  0.01502426  0.43980884     0.83900
C362        C  0.47364323  0.00291019  0.38465801     0.83600
O363        O  0.45237052  0.91969066  0.42868579    -0.77600
C364        C  0.09525029  0.01158516  0.43870666     0.84400
O365        O  0.40387658  0.98906943  0.43080441    -0.77700
C366        C  0.01970329  0.10880989  0.43607450     0.84500
C367        C  0.99786346  0.00251038  0.48948203     0.84800
O368        O  0.47790871  0.02919797  0.48180050    -0.80100
O369        O  0.17237494  0.58438306  0.57075049    -0.77600
C370        C  0.15103506  0.50113066  0.61475033     0.83400
O371        O  0.21929736  0.46217497  0.55079167    -0.78700
O372        O  0.10770725  0.41285633  0.57883308    -0.80200
O373        O  0.04604224  0.51832227  0.55077555    -0.80000
O374        O  0.12087217  0.59395719  0.55272547    -0.78600
Zn375      Zn  0.17152759  0.52896181  0.57626542     1.55700
O376        O  0.04674113  0.47484119  0.57387852    -0.80000
Cd377      Cd  0.10317407  0.53594573  0.54759598     1.59700
Cd378      Cd  0.15755037  0.45938943  0.54544861     1.59600
O379        O  0.11001568  0.52750833  0.51944640    -0.80000
O380        O  0.13486030  0.49918167  0.56239851    -1.90500
Cd381      Cd  0.10388748  0.47095015  0.58145206     1.59900
O382        O  0.14681336  0.47489049  0.51762002    -0.80000
O383        O  0.12040389  0.48405754  0.60907960    -0.78600
C384        C  0.23767124  0.48905293  0.55959597     0.83900
C385        C  0.15109873  0.60646854  0.56122247     0.83600
O386        O  0.17315695  0.51885614  0.60358885    -0.77600
C387        C  0.02948346  0.49248817  0.56070241     0.84400
O388        O  0.22086086  0.51500414  0.56860517    -0.77700
C389        C  0.12685470  0.50157802  0.50994155     0.84500
C390        C  0.10505867  0.39525574  0.56334652     0.84800
O391        O  0.12242150  0.40817564  0.54877521    -0.80100
O392        O  0.42237624  0.58438102  0.57075006    -0.77600
C393        C  0.40103368  0.50112749  0.61474959     0.83400
O394        O  0.46929910  0.46217032  0.55079395    -0.78700
O395        O  0.35770197  0.41285897  0.57883205    -0.80200
O396        O  0.29604354  0.51832278  0.55077165    -0.80000
O397        O  0.37087929  0.59395429  0.55272091    -0.78600
Zn398      Zn  0.42152733  0.52895986  0.57626503     1.55700
O399        O  0.29673990  0.47484639  0.57387670    -0.80000
Cd400      Cd  0.35317755  0.53594336  0.54759276     1.59700
Cd401      Cd  0.40755347  0.45938703  0.54544845     1.59600
O402        O  0.36002366  0.52750086  0.51944384    -0.80000
O403        O  0.38486118  0.49918068  0.56239710    -1.90500
Cd404      Cd  0.35388547  0.47095265  0.58145065     1.59900
O405        O  0.39682220  0.47488351  0.51761853    -0.80000
O406        O  0.37040110  0.48405744  0.60907855    -0.78600
C407        C  0.48767193  0.48904890  0.55959822     0.83900
C408        C  0.40110350  0.60646583  0.56121985     0.83600
O409        O  0.42315654  0.51885238  0.60358835    -0.77600
C410        C  0.27948320  0.49249138  0.56069967     0.84400
O411        O  0.47086069  0.51500153  0.56860600    -0.77700
C412        C  0.37686381  0.50157052  0.50993948     0.84500
C413        C  0.35505788  0.39525659  0.56334583     0.84800
O414        O  0.37242386  0.40817478  0.54877508    -0.80100
O415        O  0.13985174  0.58429324  0.67866887    -0.77600
C416        C  0.16120095  0.50111117  0.63464949     0.83400
O417        O  0.09291212  0.46208423  0.69859761    -0.78700
O418        O  0.20457584  0.41277929  0.67057388    -0.80200
O419        O  0.26616599  0.51820863  0.69864742    -0.80000
O420        O  0.19134960  0.59385725  0.69669828    -0.78600
Zn421      Zn  0.14069652  0.52888528  0.67314122     1.55700
O422        O  0.26547833  0.47481289  0.67550590    -0.80000
Cd423      Cd  0.20903266  0.53583907  0.70182484     1.59700
Cd424      Cd  0.15465221  0.45929183  0.70394513     1.59600
O425        O  0.20214507  0.52738828  0.72997343    -0.80000
O426        O  0.17735737  0.49909259  0.68700513    -1.90500
Cd427      Cd  0.20833423  0.47088007  0.66794482     1.59900
O428        O  0.16534334  0.47477109  0.73177855    -0.80000
O429        O  0.19181409  0.48400136  0.64031718    -0.78600
C430        C  0.07454202  0.48896783  0.68979630     0.83900
C431        C  0.16112629  0.60637290  0.68820011     0.83600
O432        O  0.13908891  0.51883510  0.64581538    -0.77600
C433        C  0.28273092  0.49241683  0.68869696     0.84400
O434        O  0.09135532  0.51492176  0.68078997    -0.77700
C435        C  0.18528528  0.50145540  0.73946868     0.84500
C436        C  0.20719133  0.39517717  0.68606210     0.84800
O437        O  0.18979007  0.40808754  0.70062458    -0.80100
O438        O  0.38985807  0.58429331  0.67866633    -0.77600
C439        C  0.41119963  0.50110614  0.63464879     0.83400
O440        O  0.34291040  0.46209114  0.69859942    -0.78700
O441        O  0.45456699  0.41277324  0.67057573    -0.80200
O442        O  0.01616714  0.51820262  0.69864490    -0.80000
O443        O  0.44135326  0.59385589  0.69669761    -0.78600
Zn444      Zn  0.39069877  0.52888495  0.67314022     1.55700
O445        O  0.01547767  0.47480208  0.67550539    -0.80000
Cd446      Cd  0.45903547  0.53583627  0.70182376     1.59700
Cd447      Cd  0.40465047  0.45929305  0.70394576     1.59600
O448        O  0.45215124  0.52738583  0.72997293    -0.80000
O449        O  0.42735801  0.49909055  0.68700454    -1.90500
Cd450      Cd  0.45833214  0.47087299  0.66794461     1.59900
O451        O  0.41534421  0.47477263  0.73177880    -0.80000
O452        O  0.44181059  0.48399234  0.64031659    -0.78600
C453        C  0.32454167  0.48897509  0.68979770     0.83900
C454        C  0.41113165  0.60637255  0.68819826     0.83600
O455        O  0.38909024  0.51883359  0.64581458    -0.77600
C456        C  0.03273114  0.49240836  0.68869555     0.84400
O457        O  0.34135622  0.51492631  0.68079000    -0.77700
C458        C  0.43528926  0.50145493  0.73946861     0.84500
C459        C  0.45718460  0.39517357  0.68606447     0.84800
O460        O  0.43978502  0.40808620  0.70062694    -0.80100
O461        O  0.04734055  0.16960883  0.67868747    -0.77600
C462        C  0.02601671  0.25285355  0.63466748     0.83400
O463        O  0.09423830  0.29182293  0.69863487    -0.78700
O464        O  0.48267320  0.34112919  0.67058487    -0.80200
O465        O  0.42098442  0.23568015  0.69864301    -0.80000
O466        O  0.49581615  0.16003671  0.69669957    -0.78600
Zn467      Zn  0.04647836  0.22502518  0.67315774     1.55700
O468        O  0.42168900  0.27915463  0.67553714    -0.80000
Cd469      Cd  0.47811115  0.21804595  0.70182224     1.59700
Cd470      Cd  0.03248610  0.29459477  0.70397886     1.59600
O471        O  0.48492818  0.22646996  0.72997206    -0.80000
O472        O  0.00980690  0.25480746  0.68702204    -1.90500
Cd473      Cd  0.47884354  0.28303701  0.66796322     1.59900
O474        O  0.02172668  0.27908491  0.73180835    -0.80000
O475        O  0.49538875  0.26994092  0.64033410    -0.78600
C476        C  0.11261533  0.26496043  0.68982028     0.83900
C477        C  0.02605605  0.14752588  0.68821322     0.83600
O478        O  0.04811607  0.23511096  0.64583246    -0.77600
C479        C  0.40442877  0.26151489  0.68871586     0.84400
O480        O  0.09580658  0.23901205  0.68080895    -0.77700
C481        C  0.50175873  0.25239573  0.73948187     0.84500
C482        C  0.48000157  0.35872318  0.68607235     0.84800
O483        O  0.99735108  0.34580254  0.70064696    -0.80100
O484        O  0.29733361  0.16961177  0.67868414    -0.77600
C485        C  0.27601645  0.25285496  0.63466562     0.83400
O486        O  0.34423945  0.29181960  0.69863452    -0.78700
O487        O  0.23268169  0.34113361  0.67058183    -0.80200
O488        O  0.17098381  0.23568712  0.69864110    -0.80000
O489        O  0.24581056  0.16004142  0.69669736    -0.78600
Zn490      Zn  0.29647769  0.22502825  0.67315626     1.55700
O491        O  0.17168902  0.27916247  0.67553561    -0.80000
Cd492      Cd  0.22810924  0.21805104  0.70182058     1.59700
Cd493      Cd  0.28248733  0.29459568  0.70397735     1.59600
O494        O  0.23492762  0.22647360  0.72997065    -0.80000
O495        O  0.25980646  0.25481063  0.68702018    -1.90500
Cd496      Cd  0.22884431  0.28304103  0.66796109     1.59900
O497        O  0.27172793  0.27908710  0.73180702    -0.80000
O498        O  0.24538576  0.26993825  0.64033190    -0.78600
C499        C  0.36261574  0.26495418  0.68982170     0.83900
C500        C  0.27604906  0.14752966  0.68821026     0.83600
O501        O  0.29811924  0.23511799  0.64583114    -0.77600
C502        C  0.15442847  0.26152234  0.68871418     0.84400
O503        O  0.34580639  0.23900635  0.68081031    -0.77700
C504        C  0.25175963  0.25239840  0.73948057     0.84500
C505        C  0.23000804  0.35872661  0.68606952     0.84800
O506        O  0.24735466  0.34580434  0.70064461    -0.80100
O507        O  0.01491241  0.16968221  0.57074611    -0.77600
C508        C  0.03620661  0.25287306  0.61476940     0.83400
O509        O  0.46797837  0.29188978  0.55081353    -0.78700
O510        O  0.07964078  0.34119510  0.57884049    -0.80200
O511        O  0.14123235  0.23578293  0.55077182    -0.80000
O512        O  0.06643680  0.16011403  0.55273430    -0.78600
Zn513      Zn  0.01575400  0.22508828  0.57627430     1.55700
O514        O  0.14054469  0.27916151  0.57392062    -0.80000
Cd515      Cd  0.08410712  0.21813425  0.54760110     1.59700
Cd516      Cd  0.02972292  0.29467716  0.54546884     1.59600
O517        O  0.07723124  0.22656824  0.51945232    -0.80000
O518        O  0.05242226  0.25488310  0.56241493    -1.90500
Cd519      Cd  0.08338970  0.28309481  0.58147870     1.59900
O520        O  0.04043302  0.27918641  0.51763809    -0.80000
O521        O  0.06682096  0.26999195  0.60910675    -0.78600
C522        C  0.44960701  0.26501078  0.55961821     0.83900
C523        C  0.03620354  0.14759942  0.56122523     0.83600
O524        O  0.01411662  0.23513363  0.60359969    -0.77600
C525        C  0.15779634  0.26157138  0.56072375     0.84400
O526        O  0.46641984  0.23905737  0.56862418    -0.77700
C527        C  0.06037975  0.25249926  0.50995299     0.84500
C528        C  0.08225288  0.35879827  0.56335227     0.84800
O529        O  0.06485504  0.34588559  0.54878940    -0.80100
O530        O  0.26491545  0.16968085  0.57074428    -0.77600
C531        C  0.28620609  0.25287305  0.61476738     0.83400
O532        O  0.21797839  0.29189281  0.55081402    -0.78700
O533        O  0.32964742  0.34119234  0.57883904    -0.80200
O534        O  0.39123200  0.23578398  0.55076784    -0.80000
O535        O  0.31643312  0.16011466  0.55272763    -0.78600
Zn536      Zn  0.26575539  0.22508742  0.57627193     1.55700
O537        O  0.39054355  0.27915476  0.57392010    -0.80000
Cd538      Cd  0.33410598  0.21813570  0.54759615     1.59700
Cd539      Cd  0.27972237  0.29467939  0.54546675     1.59600
O540        O  0.32723101  0.22657426  0.51944769    -0.80000
O541        O  0.30242206  0.25488306  0.56241171    -1.90500
Cd542      Cd  0.33338943  0.28309171  0.58147661     1.59900
O543        O  0.29043303  0.27919283  0.51763481    -0.80000
O544        O  0.31682124  0.26999007  0.60910465    -0.78600
C545        C  0.19960766  0.26501260  0.55961822     0.83900
C546        C  0.28620306  0.14759899  0.56122099     0.83600
O547        O  0.26411572  0.23513419  0.60359760    -0.77600
C548        C  0.40779571  0.26156880  0.56072218     0.84400
O549        O  0.21642115  0.23905643  0.56862208    -0.77700
C550        C  0.31038029  0.25250669  0.50994900     0.84500
C551        C  0.33225442  0.35879818  0.56335137     0.84800
O552        O  0.31485366  0.34588755  0.54878890    -0.80100
O553        O  0.04738186  0.08438022  0.57076368    -0.77600
C554        C  0.02602435  0.00113936  0.61477676     0.83400
O555        O  0.09430135  0.96219166  0.55080387    -0.78700
O556        O  0.48270096  0.91285704  0.57885079    -0.80200
O557        O  0.42104703  0.01832074  0.55079315    -0.80000
O558        O  0.49588962  0.09394680  0.55272995    -0.78600
Zn559      Zn  0.04652643  0.02896384  0.57628968     1.55700
O560        O  0.42174666  0.97485670  0.57390413    -0.80000
Cd561      Cd  0.47818043  0.03593881  0.54760772     1.59700
Cd562      Cd  0.03255389  0.95939370  0.54546325     1.59600
O563        O  0.48501275  0.02750199  0.51945630    -0.80000
O564        O  0.00986510  0.99918164  0.56241689    -1.90500
Cd565      Cd  0.47889294  0.97095146  0.58147316     1.59900
O566        O  0.02181278  0.97488752  0.51763139    -0.80000
O567        O  0.49540474  0.98405009  0.60910325    -0.78600
C568        C  0.11267478  0.98905502  0.55961902     0.83900
C569        C  0.02611359  0.10645992  0.56122816     0.83600
O570        O  0.04813928  0.01887745  0.60361659    -0.77600
C571        C  0.40448774  0.99249692  0.56072626     0.84400
O572        O  0.09586408  0.01499250  0.56863784    -0.77700
C573        C  0.50185261  0.00157278  0.50995141     0.84500
C574        C  0.48005515  0.89525957  0.56336325     0.84800
O575        O  0.99742584  0.90817853  0.54879362    -0.80100
O576        O  0.29737818  0.08438139  0.57076299    -0.77600
C577        C  0.27601625  0.00114369  0.61477611     0.83400
O578        O  0.34430505  0.96218950  0.55081044    -0.78700
O579        O  0.23270541  0.91285744  0.57885329    -0.80200
O580        O  0.17104827  0.01831679  0.55078811    -0.80000
O581        O  0.24589270  0.09394375  0.55272434    -0.78600
Zn582      Zn  0.29652318  0.02896536  0.57628968     1.55700
O583        O  0.17174459  0.97485313  0.57389927    -0.80000
Cd584      Cd  0.22818349  0.03593398  0.54760504     1.59700
Cd585      Cd  0.28255985  0.95939000  0.54546554     1.59600
O586        O  0.23502252  0.02749093  0.51945502    -0.80000
O587        O  0.25986573  0.99917972  0.56241662    -1.90500
Cd588      Cd  0.22888980  0.97095177  0.58147228     1.59900
O589        O  0.27182613  0.97487872  0.51763168    -0.80000
O590        O  0.24539620  0.98405505  0.60910259    -0.78600
C591        C  0.36267585  0.98905636  0.55962430     0.83900
C592        C  0.27611352  0.10645907  0.56122451     0.83600
O593        O  0.29813228  0.01888031  0.60361603    -0.77600
C594        C  0.15448724  0.99249320  0.56072078     0.84400
O595        O  0.34586279  0.01499623  0.56864042    -0.77700
C596        C  0.25186525  0.00156269  0.50995085     0.84500
C597        C  0.23006028  0.89525851  0.56336617     0.84800
O598        O  0.24743173  0.90817577  0.54879647    -0.80100
O599        O  0.01486613  0.08430364  0.67869081    -0.77600
C600        C  0.03618904  0.00111833  0.63467684     0.83400
O601        O  0.46790965  0.96208926  0.69862185    -0.78700
O602        O  0.07957698  0.91279065  0.67059811    -0.80200
O603        O  0.14116598  0.01820955  0.69867635    -0.80000
O604        O  0.06636597  0.09386841  0.69671857    -0.78600
Zn605      Zn  0.01569588  0.02889334  0.67317042     1.55700
O606        O  0.14047940  0.97481955  0.67553250    -0.80000
Cd607      Cd  0.08403521  0.03584566  0.70185109     1.59700
Cd608      Cd  0.02965023  0.95929502  0.70396962     1.59600
O609        O  0.07714016  0.02739001  0.72999895    -0.80000
O610        O  0.05235828  0.99909950  0.68703210    -1.90500
Cd611      Cd  0.08333427  0.97089134  0.66797077     1.59900
O612        O  0.04033792  0.97477199  0.73180265    -0.80000
O613        O  0.06680783  0.98401667  0.64034364    -0.78600
C614        C  0.44954125  0.98898399  0.68982762     0.83900
C615        C  0.03614581  0.10638551  0.68821799     0.83600
O616        O  0.01407309  0.01883437  0.64584414    -0.77600
C617        C  0.15773090  0.99241894  0.68872541     0.84400
O618        O  0.46635625  0.01494454  0.68082672    -0.77700
C619        C  0.06027887  0.00145612  0.73949325     0.84500
C620        C  0.08218377  0.89517943  0.68608422     0.84800
O621        O  0.06478366  0.90808698  0.70064770    -0.80100
O622        O  0.26485672  0.08430641  0.67869008    -0.77600
C623        C  0.28618158  0.00112293  0.63467592     0.83400
O624        O  0.21791231  0.96208532  0.69862034    -0.78700
O625        O  0.32958637  0.91279755  0.67059590    -0.80200
O626        O  0.39116458  0.01821588  0.69867599    -0.80000
O627        O  0.31636125  0.09387372  0.69671448    -0.78600
Zn628      Zn  0.26569065  0.02889621  0.67316933     1.55700
O629        O  0.39048045  0.97483070  0.67553023    -0.80000
Cd630      Cd  0.33403264  0.03585199  0.70184790     1.59700
Cd631      Cd  0.27965233  0.95929705  0.70396695     1.59600
O632        O  0.32713739  0.02739722  0.72999534    -0.80000
O633        O  0.30235671  0.99910396  0.68702973    -1.90500
Cd634      Cd  0.33333486  0.97089921  0.66796853     1.59900
O635        O  0.29034142  0.97477472  0.73179936    -0.80000
O636        O  0.31680143  0.98402222  0.64034219    -0.78600
C637        C  0.19954134  0.98897889  0.68982678     0.83900
C638        C  0.28613856  0.10638944  0.68821546     0.83600
O639        O  0.26406613  0.01883906  0.64584334    -0.77600
C640        C  0.40773062  0.99242665  0.68872467     0.84400
O641        O  0.21635337  0.01494158  0.68082602    -0.77700
C642        C  0.31028019  0.00146090  0.73948962     0.84500
C643        C  0.33218770  0.89518354  0.68608147     0.84800
O644        O  0.31478490  0.90808953  0.70064452    -0.80100
O645        O  0.13988538  0.66969239  0.57074014    -0.77600
C646        C  0.16117119  0.75288149  0.61476846     0.83400
O647        O  0.09296929  0.79194661  0.55083140    -0.78700
O648        O  0.20457501  0.84122025  0.57885707    -0.80200
O649        O  0.26622105  0.73580228  0.55078851    -0.80000
O650        O  0.19143018  0.66012671  0.55274206    -0.78600
Zn651      Zn  0.14072868  0.72510147  0.57627075     1.55700
O652        O  0.26552291  0.77921857  0.57392061    -0.80000
Cd653      Cd  0.20909902  0.71815043  0.54761289     1.59700
Cd654      Cd  0.15471473  0.79470215  0.54547771     1.59600
O655        O  0.20222989  0.72659253  0.51946485    -0.80000
O656        O  0.17740584  0.75489964  0.56242093    -1.90500
Cd657      Cd  0.20836417  0.78311929  0.58148518     1.59900
O658        O  0.16542010  0.77920349  0.51764664    -0.80000
O659        O  0.19179343  0.76999214  0.60910955    -0.78600
C660        C  0.07459237  0.76505414  0.55962398     0.83900
C661        C  0.16118732  0.64760996  0.56122443     0.83600
O662        O  0.13907836  0.73515162  0.60359612    -0.77600
C663        C  0.28277970  0.76161047  0.56073069     0.84400
O664        O  0.09140094  0.73907723  0.56861569    -0.77700
C665        C  0.18537526  0.75251880  0.50996375     0.90900
C666        C  0.20723729  0.85881113  0.56336753     0.84800
O667        O  0.18986939  0.84589378  0.54879783    -0.80100
O668        O  0.38988926  0.66968884  0.57073777    -0.77600
C669        C  0.41117331  0.75287980  0.61476654     0.83400
O670        O  0.34296804  0.79194070  0.55083087    -0.78700
O671        O  0.45457172  0.84122011  0.57885393    -0.80200
O672        O  0.01622296  0.73580537  0.55078677    -0.80000
O673        O  0.44143513  0.66012459  0.55274026    -0.78600
Zn674      Zn  0.39073094  0.72509703  0.57626924     1.55700
O675        O  0.01552153  0.77922210  0.57391856    -0.80000
Cd676      Cd  0.45910168  0.71814907  0.54761169     1.59700
Cd677      Cd  0.40471298  0.79469891  0.54547597     1.59600
O678        O  0.45223175  0.72658911  0.51946422    -0.80000
O679        O  0.42740579  0.75489716  0.56241895    -1.90500
Cd680      Cd  0.45836255  0.78311945  0.58148250     1.59900
O681        O  0.41541968  0.77919862  0.51764564    -0.80000
O682        O  0.44179319  0.76999369  0.60910704    -0.78600
C683        C  0.32459211  0.76504890  0.55962446     0.83900
C684        C  0.41119194  0.64760716  0.56122210     0.83600
O685        O  0.38908235  0.73514614  0.60359474    -0.77600
C686        C  0.03277991  0.76161475  0.56072897     0.84400
O687        O  0.34140163  0.73907203  0.56861583    -0.77700
C688        C  0.43537618  0.75251459  0.50996312     0.84500
C689        C  0.45723313  0.85881120  0.56336444     0.84800
O690        O  0.43986530  0.84589299  0.54879488    -0.80100
O691        O  0.17230483  0.66959752  0.67867205    -0.77600
C692        C  0.15098036  0.75285549  0.63466616     0.83400
O693        O  0.21922303  0.79177492  0.69864253    -0.78700
O694        O  0.10760620  0.84111454  0.67059872    -0.80200
O695        O  0.04596699  0.73565676  0.69865346    -0.80000
O696        O  0.12080268  0.66001856  0.69669812    -0.78600
Zn697      Zn  0.17144750  0.72501347  0.67315172     1.55700
O698        O  0.04666300  0.77910869  0.67553741    -0.80000
Cd699      Cd  0.10309780  0.71802637  0.70182793     1.59700
Cd700      Cd  0.15747232  0.79457336  0.70398129     1.59600
O701        O  0.10992697  0.72644823  0.72997835    -0.80000
O702        O  0.13478359  0.75479220  0.68702388    -1.90500
Cd703      Cd  0.10381327  0.78302144  0.66796759     1.59900
O704        O  0.14671154  0.77907300  0.73181018    -0.80000
O705        O  0.12035660  0.76994620  0.64033552    -0.78600
C706        C  0.23759453  0.76491739  0.68982188     0.83900
C707        C  0.15103175  0.64751130  0.68820148     0.83600
O708        O  0.17307830  0.73510572  0.64582862    -0.77600
C709        C  0.02940677  0.76147853  0.68872015     0.84400
O710        O  0.22078132  0.73898462  0.68080189    -0.77700
C711        C  0.12675244  0.75238157  0.73948599     0.84500
C712        C  0.10498091  0.85871697  0.68608578     0.84800
O713        O  0.12235692  0.84579623  0.70065328    -0.80100
O714        O  0.42230986  0.66959868  0.67867102    -0.77600
C715        C  0.40098266  0.75285542  0.63466427     0.83400
O716        O  0.46922097  0.79177457  0.69864611    -0.78700
O717        O  0.35760501  0.84111588  0.67059619    -0.80200
O718        O  0.29596685  0.73565312  0.69864847    -0.80000
O719        O  0.37080548  0.66001719  0.69669522    -0.78600
Zn720      Zn  0.42145006  0.72501564  0.67315060     1.55700
O721        O  0.29666270  0.77910863  0.67553389    -0.80000
Cd722      Cd  0.35309723  0.71802430  0.70182493     1.59700
Cd723      Cd  0.40746853  0.79457332  0.70398061     1.59600
O724        O  0.35992142  0.72644441  0.72997640    -0.80000
O725        O  0.38478274  0.75479265  0.68702181    -1.90500
Cd726      Cd  0.35381333  0.78302225  0.66796485     1.59900
O727        O  0.39670127  0.77907223  0.73180886    -0.80000
O728        O  0.37035812  0.76994553  0.64033313    -0.78600
C729        C  0.48759428  0.76491912  0.68982489     0.83900
C730        C  0.40103643  0.64751121  0.68819967     0.83600
O731        O  0.42308135  0.73510770  0.64582722    -0.77600
C732        C  0.27940666  0.76147625  0.68871598     0.84400
O733        O  0.47078266  0.73898875  0.68080256    -0.77700
C734        C  0.37674409  0.75237907  0.73948445     0.84500
C735        C  0.35498159  0.85871921  0.68608315     0.84800
O736        O  0.37235643  0.84579778  0.70065084    -0.80100
O737        O  0.20138374  0.48498692  0.89581769    -0.77600
C738        C  0.22341899  0.39740790  0.93820442     0.83400
O739        O  0.15522211  0.54168208  0.94861531    -0.78700
O740        O  0.26447289  0.47637607  0.97998202    -0.80200
O741        O  0.32778523  0.52897997  0.92552398    -0.80000
O742        O  0.25411714  0.51981379  0.89032843    -0.78600
Zn743      Zn  0.20300349  0.47490076  0.92314298     1.55700
O744        O  0.32847401  0.48555327  0.94865180    -0.80000
Cd745      Cd  0.27064018  0.53290575  0.91795850     1.59700
Cd746      Cd  0.21696451  0.54447742  0.95396303     1.59600
O747        O  0.26686285  0.59100172  0.92058679    -0.80000
O748        O  0.23966247  0.50468476  0.93701540    -1.90500
Cd749      Cd  0.27133815  0.46793348  0.95183205     1.59900
O750        O  0.25210015  0.59568849  0.95063987    -0.80000
O751        O  0.25363510  0.40992312  0.94670857    -0.78600
C752        C  0.13685121  0.51480629  0.93980817     0.83900
C753        C  0.22349669  0.50272336  0.88465640     0.83600
O754        O  0.20215715  0.41948579  0.92866486    -0.77600
C755        C  0.34503883  0.51135843  0.93870937     0.84400
O756        O  0.15366386  0.48885989  0.93079632    -0.77700
C757        C  0.26948774  0.60860360  0.93607414     0.84500
C758        C  0.24761759  0.50230254  0.98948261     0.84800
O759        O  0.22766726  0.52898780  0.98179737    -0.80100
O760        O  0.45138156  0.48498262  0.89581877    -0.77600
C761        C  0.47342496  0.39740653  0.93820433     0.83400
O762        O  0.40522169  0.54167193  0.94861879    -0.78700
O763        O  0.01448236  0.47637077  0.97998199    -0.80200
O764        O  0.07778315  0.52898935  0.92552317    -0.80000
O765        O  0.00411502  0.51980874  0.89032853    -0.78600
Zn766      Zn  0.45300318  0.47489727  0.92314408     1.55700
O767        O  0.07847775  0.48555693  0.94864844    -0.80000
Cd768      Cd  0.02063642  0.53290505  0.91795824     1.59700
Cd769      Cd  0.46696443  0.54446911  0.95396473     1.59600
O770        O  0.01684464  0.59099939  0.92058596    -0.80000
O771        O  0.48966316  0.50468063  0.93701568    -1.90500
Cd772      Cd  0.02134416  0.46793180  0.95183098     1.59900
O773        O  0.50209735  0.59568048  0.95064091    -0.80000
O774        O  0.00364362  0.40992153  0.94670648    -0.78600
C775        C  0.38685052  0.51479729  0.93981102     0.83900
C776        C  0.47349444  0.50271787  0.88465702     0.83600
O777        O  0.45215980  0.41948412  0.92866651    -0.77600
C778        C  0.09503955  0.51136588  0.93870710     0.84400
O779        O  0.40366297  0.48885270  0.93079794    -0.77700
C780        C  0.01947767  0.60859815  0.93607383     0.84500
C781        C  0.99762505  0.50229514  0.98948311     0.84800
O782        O  0.47767165  0.52897871  0.98179832    -0.80100
O783        O  0.23544836  0.48502014  0.85359047    -0.77600
C784        C  0.21337280  0.39745289  0.81121656     0.83400
O785        O  0.28160254  0.54174426  0.80081098    -0.78700
O786        O  0.17237354  0.47644905  0.76943364    -0.80200
O787        O  0.10903624  0.52902440  0.82389589    -0.80000
O788        O  0.18270556  0.51982697  0.85908945    -0.78600
Zn789      Zn  0.23381970  0.47494528  0.82626572     1.55700
O790        O  0.10834978  0.48561888  0.80075873    -0.80000
Cd791      Cd  0.16618032  0.53294873  0.83146203     1.59700
Cd792      Cd  0.21986175  0.54454395  0.79546388     1.59600
O793        O  0.16994580  0.59104917  0.82883916    -0.80000
O794        O  0.19715812  0.50473849  0.81240193    -1.90500
Cd795      Cd  0.16548380  0.46799228  0.79758165     1.59900
O796        O  0.18472512  0.59575120  0.79878841    -0.80000
O797        O  0.18316116  0.40997243  0.80271009    -0.78600
C798        C  0.29997285  0.51484815  0.80960347     0.83900
C799        C  0.21333009  0.50273611  0.86475670     0.83600
O800        O  0.23464387  0.41953159  0.82075025    -0.77600
C801        C  0.09178418  0.51141514  0.81070620     0.84400
O802        O  0.28316015  0.48888684  0.81860521    -0.77700
C803        C  0.16732877  0.60865831  0.81335312     0.84500
C804        C  0.18923081  0.50238462  0.75993897     0.84800
O805        O  0.20917053  0.52907005  0.76762961    -0.80100
O806        O  0.48544970  0.48501995  0.85359074    -0.77600
C807        C  0.46337556  0.39745324  0.81121614     0.83400
O808        O  0.03160098  0.54174862  0.80081274    -0.78700
O809        O  0.42238038  0.47644608  0.76943333    -0.80200
O810        O  0.35903427  0.52901385  0.82389646    -0.80000
O811        O  0.43269939  0.51981478  0.85909064    -0.78600
Zn812      Zn  0.48382184  0.47494550  0.82626598     1.55700
O813        O  0.35835095  0.48561552  0.80075621    -0.80000
Cd814      Cd  0.41617681  0.53294110  0.83146353     1.59700
Cd815      Cd  0.46986003  0.54454459  0.79546554     1.59600
O816        O  0.41993541  0.59104319  0.82884302    -0.80000
O817        O  0.44715815  0.50473681  0.81240265    -1.90500
Cd818      Cd  0.41548627  0.46799064  0.79758110     1.59900
O819        O  0.43472428  0.59575132  0.79879326    -0.80000
O820        O  0.43316306  0.40997231  0.80271035    -0.78600
C821        C  0.04997289  0.51485353  0.80960514     0.83900
C822        C  0.46332745  0.50272966  0.86475744     0.83600
O823        O  0.48464763  0.41953185  0.82074942    -0.77600
C824        C  0.34178392  0.51140852  0.81070509     0.84400
O825        O  0.03316160  0.48889051  0.81860630    -0.77700
C826        C  0.41732558  0.60865664  0.81335778     0.84500
C827        C  0.43923456  0.50238433  0.75993906     0.84800
O828        O  0.45916976  0.52907247  0.76763032    -0.80100
O829        O  0.11040881  0.76870840  0.89583312    -0.77600
C830        C  0.08834197  0.85625311  0.93821035     0.83400
O831        O  0.15654888  0.71195098  0.94862092    -0.78700
O832        O  0.04727167  0.77728028  0.97997634    -0.80200
O833        O  0.48398786  0.72466089  0.92552406    -0.80000
O834        O  0.05769507  0.73386156  0.89032887    -0.78600
Zn835      Zn  0.10877914  0.77876014  0.92315821     1.55700
O836        O  0.48329483  0.76808796  0.94865118    -0.80000
Cd837      Cd  0.04114172  0.72075051  0.91795713     1.59700
Cd838      Cd  0.09480184  0.70917277  0.95396669     1.59600
O839        O  0.04492594  0.66265285  0.92058658    -0.80000
O840        O  0.07210968  0.74896788  0.93701835    -1.90500
Cd841      Cd  0.04042229  0.78572164  0.95182736     1.59900
O842        O  0.05966721  0.65796643  0.95064197    -0.80000
O843        O  0.05810639  0.84373835  0.94669917    -0.78600
C844        C  0.17492215  0.73882307  0.93981194     0.83900
C845        C  0.08831285  0.75097209  0.88466487     0.83600
O846        O  0.10963273  0.83417057  0.92868853    -0.77600
C847        C  0.46673305  0.74227802  0.93871144     0.84400
O848        O  0.15811063  0.76477621  0.93080519    -0.77700
C849        C  0.04228844  0.64505237  0.93607422     0.84500
C850        C  0.06411407  0.75134933  0.98947898     0.84800
O851        O  0.08407262  0.72466474  0.98179771    -0.80100
O852        O  0.36041623  0.76871938  0.89583570    -0.77600
C853        C  0.33832319  0.85626432  0.93820799     0.83400
O854        O  0.40654608  0.71196674  0.94862356    -0.78700
O855        O  0.29725870  0.77729421  0.97997564    -0.80200
O856        O  0.23399421  0.72465028  0.92552155    -0.80000
O857        O  0.30770615  0.73386803  0.89032973    -0.78600
Zn858      Zn  0.35877845  0.77877244  0.92316097     1.55700
O859        O  0.23328908  0.76808028  0.94864739    -0.80000
Cd860      Cd  0.29115035  0.72075196  0.91795706     1.59700
Cd861      Cd  0.34479922  0.70918698  0.95396877     1.59600
O862        O  0.29494781  0.66265439  0.92058693    -0.80000
O863        O  0.32210777  0.74897830  0.93701912    -1.90500
Cd864      Cd  0.29041135  0.78572901  0.95182565     1.59900
O865        O  0.30966668  0.65797825  0.95064488    -0.80000
O866        O  0.30808576  0.84374844  0.94669501    -0.78600
C867        C  0.42492091  0.73884121  0.93981699     0.83900
C868        C  0.33832296  0.75098163  0.88466664     0.83600
O869        O  0.35961996  0.83418202  0.92868936    -0.77600
C870        C  0.21673396  0.74226564  0.93870784     0.84400
O871        O  0.40811099  0.76479737  0.93081148    -0.77700
C872        C  0.29229869  0.64505846  0.93607542     0.84500
C873        C  0.31410394  0.75136635  0.98947881     0.84800
O874        O  0.33406648  0.72468341  0.98179826    -0.80100
O875        O  0.07640266  0.76873311  0.85360255    -0.77600
C876        C  0.09847069  0.85632087  0.81122848     0.83400
O877        O  0.03027765  0.71203735  0.80080120    -0.78700
O878        O  0.13957943  0.77736890  0.76946141    -0.80200
O879        O  0.20283090  0.72470245  0.82390097    -0.80000
O880        O  0.12912343  0.73389191  0.85909947    -0.78600
Zn881      Zn  0.07804587  0.77882186  0.82627899     1.55700
O882        O  0.20353416  0.76817002  0.80079167    -0.80000
Cd883      Cd  0.14567639  0.72080150  0.83147031     1.59700
Cd884      Cd  0.09202711  0.70925239  0.79545814     1.59600
O885        O  0.14186853  0.66270692  0.82884072    -0.80000
O886        O  0.11471431  0.74903714  0.81241342    -1.90500
Cd887      Cd  0.14640581  0.78579982  0.79761128     1.59900
O888        O  0.12715520  0.65803834  0.79878224    -0.80000
O889        O  0.12870253  0.84381059  0.80273525    -0.78600
C890        C  0.01190391  0.73890707  0.80961202     0.83900
C891        C  0.09849959  0.75098622  0.86476674     0.83600
O892        O  0.07719372  0.83423714  0.82075713    -0.77600
C893        C  0.22009103  0.74234090  0.81072186     0.84400
O894        O  0.02871510  0.76485394  0.81862332    -0.77700
C895        C  0.14451895  0.64511373  0.81335202     0.84500
C896        C  0.12274432  0.75144177  0.75995368     0.84800
O897        O  0.10277720  0.72475597  0.76762926    -0.80100
O898        O  0.32641051  0.76874073  0.85360422    -0.77600
C899        C  0.34846384  0.85632176  0.81122412     0.83400
O900        O  0.28027820  0.71203560  0.80080373    -0.78700
O901        O  0.38956911  0.77736920  0.76945941    -0.80200
O902        O  0.45283418  0.72471250  0.82389896    -0.80000
O903        O  0.37913526  0.73390550  0.85910091    -0.78600
Zn904      Zn  0.32804638  0.77882418  0.82627996     1.55700
O905        O  0.45353237  0.76817304  0.80078658    -0.80000
Cd906      Cd  0.39568236  0.72081047  0.83147123     1.59700
Cd907      Cd  0.34202754  0.70925182  0.79545983     1.59600
O908        O  0.39188087  0.66271410  0.82884454    -0.80000
O909        O  0.36471472  0.74903959  0.81241378    -1.90500
Cd910      Cd  0.39640203  0.78580128  0.79760879     1.59900
O911        O  0.37715326  0.65803742  0.79878761    -0.80000
O912        O  0.37869672  0.84381144  0.80273173    -0.78600
C913        C  0.26190379  0.73890162  0.80961684     0.83900
C914        C  0.34851040  0.75099755  0.86476847     0.83600
O915        O  0.32718788  0.83423876  0.82075384    -0.77600
C916        C  0.47009142  0.74234685  0.81071776     0.84400
O917        O  0.27871457  0.76484805  0.81862867    -0.77700
C918        C  0.39452143  0.64511549  0.81335681     0.84500
C919        C  0.37273706  0.75143895  0.75995243     0.84800
O920        O  0.35277542  0.72475027  0.76762915    -0.80100
O921        O  0.23541541  0.26871538  0.89583415    -0.77600
C922        C  0.21332706  0.35626901  0.93820694     0.83400
O923        O  0.28154018  0.21197111  0.94862116    -0.78700
O924        O  0.17226058  0.27730064  0.97997871    -0.80200
O925        O  0.10898659  0.22466376  0.92552726    -0.80000
O926        O  0.18269393  0.23388061  0.89032944    -0.78600
Zn927      Zn  0.23377128  0.27877548  0.92315970     1.55700
O928        O  0.10828586  0.26810127  0.94865007    -0.80000
Cd929      Cd  0.16614057  0.22075970  0.91795789     1.59700
Cd930      Cd  0.21979174  0.20918828  0.95396797     1.59600
O931        O  0.16992969  0.16265886  0.92058557    -0.80000
O932        O  0.19710123  0.24898360  0.93701993    -1.90500
Cd933      Cd  0.16541211  0.28573912  0.95182882     1.59900
O934        O  0.18465314  0.15798136  0.95064290    -0.80000
O935        O  0.18309613  0.34375642  0.94670034    -0.78600
C936        C  0.29991396  0.23885251  0.93981869     0.83900
C937        C  0.21331541  0.25098515  0.88466526     0.83600
O938        O  0.23461179  0.33418527  0.92868307    -0.77600
C939        C  0.09172806  0.24228493  0.93871235     0.84400
O940        O  0.28310278  0.26481069  0.93081520    -0.77700
C941        C  0.16728027  0.14506320  0.93607421     0.84500
C942        C  0.18910346  0.25136916  0.98948091     0.84800
O943        O  0.20906061  0.22468405  0.98179890    -0.80100
O944        O  0.48541956  0.26871966  0.89583403    -0.77600
C945        C  0.46333296  0.35626828  0.93820716     0.83400
O946        O  0.03153899  0.21196322  0.94861649    -0.78700
O947        O  0.42226871  0.27730067  0.97997782    -0.80200
O948        O  0.35898167  0.22468130  0.92552422    -0.80000
O949        O  0.43268753  0.23390220  0.89032691    -0.78600
Zn950      Zn  0.48377584  0.27877634  0.92315966     1.55700
O951        O  0.35828675  0.26810370  0.94865347    -0.80000
Cd952      Cd  0.41613455  0.22077470  0.91795409     1.59700
Cd953      Cd  0.46979085  0.20918799  0.95396370     1.59600
O954        O  0.41991622  0.16267319  0.92057787    -0.80000
O955        O  0.44710121  0.24898702  0.93701776    -1.90500
Cd956      Cd  0.41541471  0.28574087  0.95182847     1.59900
O957        O  0.43465398  0.15798405  0.95063368    -0.80000
O958        O  0.43309988  0.34375697  0.94669926    -0.78600
C959        C  0.04991540  0.23884595  0.93981647     0.83900
C960        C  0.46331425  0.25099911  0.88466405     0.83600
O961        O  0.48461896  0.33418418  0.92868430    -0.77600
C962        C  0.34172636  0.24229359  0.93871306     0.84400
O963        O  0.03310659  0.26480883  0.93081518    -0.77700
C964        C  0.41727717  0.14507079  0.93606513     0.84500
C965        C  0.43910819  0.25136576  0.98947931     0.84800
O966        O  0.45906080  0.22467833  0.98179630    -0.80100
O967        O  0.20140249  0.26874415  0.85360182    -0.77600
C968        C  0.22346028  0.35631250  0.81122005     0.83400
O969        O  0.15526643  0.21202539  0.80079262    -0.78700
O970        O  0.26458391  0.27737207  0.76945906    -0.80200
O971        O  0.32781206  0.22466767  0.82389172    -0.80000
O972        O  0.25411943  0.23389670  0.85909735    -0.78600
Zn973      Zn  0.20303080  0.27881512  0.82627513     1.55700
O974        O  0.32852420  0.26815727  0.80079236    -0.80000
Cd975      Cd  0.27065621  0.22079057  0.83146660     1.59700
Cd976      Cd  0.21701733  0.20924923  0.79544946     1.59600
O977        O  0.26680977  0.16269783  0.82884196    -0.80000
O978        O  0.23969916  0.24903072  0.81240914    -1.90500
Cd979      Cd  0.27139955  0.28579156  0.79761009     1.59900
O980        O  0.25214900  0.15803769  0.79877768    -0.80000
O981        O  0.25370154  0.34380127  0.80273514    -0.78600
C982        C  0.13689054  0.23888188  0.80961192     0.83900
C983        C  0.22350038  0.25099784  0.86476607     0.83600
O984        O  0.20217070  0.33422942  0.82074293    -0.77600
C985        C  0.34507644  0.24231640  0.81071702     0.84400
O986        O  0.15370015  0.26482398  0.81862742    -0.77700
C987        C  0.26949161  0.14511076  0.81335288     0.84500
C988        C  0.24774788  0.25145100  0.75994833     0.84800
O989        O  0.22777573  0.22476423  0.76762103    -0.80100
O990        O  0.45139955  0.26875143  0.85360011    -0.77600
C991        C  0.47346185  0.35631309  0.81121940     0.83400
O992        O  0.40526665  0.21202083  0.80079478    -0.78700
O993        O  0.01457810  0.27737355  0.76945969    -0.80200
O994        O  0.07781451  0.22467929  0.82389400    -0.80000
O995        O  0.00412194  0.23391334  0.85909771    -0.78600
Zn996      Zn  0.45302799  0.27881716  0.82627345     1.55700
O997        O  0.07852396  0.26815657  0.80078943    -0.80000
Cd998      Cd  0.02065892  0.22079967  0.83146837     1.59700
Cd999      Cd  0.46701768  0.20924701  0.79545184     1.59600
O1000       O  0.01681981  0.16270515  0.82884710    -0.80000
O1001       O  0.48969871  0.24903208  0.81240961    -1.90500
Cd1002     Cd  0.02139883  0.28579208  0.79761007     1.59900
O1003       O  0.50214671  0.15803534  0.79878420    -0.80000
O1004       O  0.00370564  0.34380193  0.80273662    -0.78600
C1005       C  0.38688955  0.23887847  0.80961259     0.83900
C1006       C  0.47350025  0.25101133  0.86476527     0.83600
O1007       O  0.45216786  0.33422990  0.82073978    -0.77600
C1008       C  0.09507748  0.24232098  0.81071668     0.84400
O1009       O  0.40369802  0.26482371  0.81862639    -0.77700
C1010       C  0.01949285  0.14511191  0.81335927     0.84500
C1011       C  0.99774617  0.25144902  0.75994955     0.84800
O1012       O  0.47777812  0.22475951  0.76762278    -0.80100
O1013       O  0.07636690  0.98497547  0.89583297    -0.77600
C1014       C  0.09842772  0.89739450  0.93820938     0.83400
O1015       O  0.03021014  0.04169081  0.94861713    -0.78700
O1016       O  0.13947196  0.97637668  0.97997928    -0.80200
O1017       O  0.20276224  0.02902051  0.92553587    -0.80000
O1018       O  0.12910007  0.01980417  0.89034160    -0.78600
Zn1019     Zn  0.07798796  0.97488976  0.92315774     1.55700
O1020       O  0.20346787  0.98555611  0.94864682    -0.80000
Cd1021     Cd  0.14561607  0.03291971  0.91796772     1.59700
Cd1022     Cd  0.09195256  0.04448149  0.95396572     1.59600
O1023       O  0.14180577  0.09101733  0.92058736    -0.80000
O1024       O  0.11464927  0.00468317  0.93702212    -1.90500
Cd1025     Cd  0.14633667  0.96793020  0.95183104     1.59900
O1026       O  0.12709146  0.09569171  0.95064494    -0.80000
O1027       O  0.12865045  0.90991319  0.94670679    -0.78600
C1028       C  0.01183733  0.01480456  0.93981837     0.83900
C1029       C  0.09848011  0.00271094  0.88467123     0.83600
O1030       O  0.07715009  0.91947312  0.92867863    -0.77600
C1031       C  0.22002412  0.01138044  0.93871268     0.84400
O1032       O  0.02864835  0.98884539  0.93081430    -0.77700
C1033       C  0.14445939  0.10861273  0.93607530     0.84500
C1034       C  0.12261399  0.00230208  0.98947946     0.84800
O1035       O  0.10265951  0.02898570  0.98179580    -0.80100
O1036       O  0.32636666  0.98498721  0.89582713    -0.77600
C1037       C  0.34840880  0.89740551  0.93820673     0.83400
O1038       O  0.28020856  0.04170712  0.94860969    -0.78700
O1039       O  0.38945252  0.97638963  0.97997621    -0.80200
O1040       O  0.45277154  0.02900411  0.92553440    -0.80000
O1041       O  0.37911174  0.01979809  0.89033549    -0.78600
Zn1042     Zn  0.32798373  0.97490096  0.92315139     1.55700
O1043       O  0.45346049  0.98555234  0.94865082    -0.80000
Cd1044     Cd  0.39562744  0.03291398  0.91796197     1.59700
Cd1045     Cd  0.34194971  0.04449387  0.95395761     1.59600
O1046       O  0.39183075  0.09101276  0.92057889    -0.80000
O1047       O  0.36464725  0.00469114  0.93701625    -1.90500
Cd1048     Cd  0.39632403  0.96793710  0.95182925     1.59900
O1049       O  0.37708540  0.09570226  0.95063309    -0.80000
O1050       O  0.37862918  0.90992318  0.94670639    -0.78600
C1051       C  0.26183551  0.01482019  0.93981192     0.83900
C1052       C  0.34848631  0.00271415  0.88466526     0.83600
O1053       O  0.32713711  0.91948392  0.92867268    -0.77600
C1054       C  0.47002530  0.01136889  0.93871536     0.84400
O1055       O  0.27864583  0.98886097  0.93080770    -0.77700
C1056       C  0.39446481  0.10861677  0.93606529     0.84500
C1057       C  0.37259996  0.00232015  0.98947532     0.84800
O1058       O  0.35265217  0.02900699  0.98179019    -0.80100
O1059       O  0.11042654  0.98500298  0.85360663    -0.77600
C1060       C  0.08837779  0.89745998  0.81122764     0.83400
O1061       O  0.15658801  0.04176948  0.80083599    -0.78700
O1062       O  0.04735117  0.97645757  0.76945813    -0.80200
O1063       O  0.48402787  0.02905075  0.82391450    -0.80000
O1064       O  0.05769749  0.01983276  0.85910576    -0.78600
Zn1065     Zn  0.10881165  0.97494880  0.82628142     1.55700
O1066       O  0.48333405  0.98562234  0.80078741    -0.80000
Cd1067     Cd  0.04117299  0.03296487  0.83148037     1.59700
Cd1068     Cd  0.09484888  0.04454809  0.79548528     1.59600
O1069       O  0.04494892  0.09106678  0.82885479    -0.80000
O1070       O  0.07214516  0.00474302  0.81242242    -1.90500
Cd1071     Cd  0.04046620  0.96799521  0.79760616     1.59900
O1072       O  0.05970124  0.09574702  0.79880084    -0.80000
O1073       O  0.05815171  0.90997541  0.80273149    -0.78600
C1074       C  0.17496089  0.01487548  0.80962840     0.83900
C1075       C  0.08831315  0.00272565  0.86477258     0.83600
O1076       O  0.10965614  0.91954083  0.82075600    -0.77600
C1077       C  0.46677264  0.01143060  0.81072934     0.84400
O1078       O  0.15815007  0.98890930  0.81862742    -0.77700
C1079       C  0.04231342  0.10866273  0.81336569     0.84500
C1080       C  0.06422093  0.00238507  0.75996324     0.84800
O1081       O  0.08417019  0.02906378  0.76765315    -0.80100
O1082       O  0.36042764  0.98500037  0.85360105    -0.77600
C1083       C  0.33837169  0.89746112  0.81122262     0.83400
O1084       O  0.40659257  0.04176948  0.80083537    -0.78700
O1085       O  0.29734939  0.97646509  0.76945423    -0.80200
O1086       O  0.23403045  0.02905562  0.82391228    -0.80000
O1087       O  0.30770682  0.01984233  0.85909990    -0.78600
Zn1088     Zn  0.35880957  0.97494766  0.82627613     1.55700
O1089       O  0.23333221  0.98562912  0.80078443    -0.80000
Cd1090     Cd  0.29117779  0.03297003  0.83147489     1.59700
Cd1091     Cd  0.34485476  0.04455029  0.79548071     1.59600
O1092       O  0.29495694  0.09107046  0.82884802    -0.80000
O1093       O  0.32214686  0.00474590  0.81241705    -1.90500
Cd1094     Cd  0.29046431  0.96800026  0.79760167     1.59900
O1095       O  0.30970502  0.09574916  0.79879378    -0.80000
O1096       O  0.30814670  0.90997822  0.80272606    -0.78600
C1097       C  0.42496212  0.01487201  0.80962699     0.83900
C1098       C  0.33831916  0.00272956  0.86476673     0.83600
O1099       O  0.35965069  0.91954091  0.82075100    -0.77600
C1100       C  0.21677223  0.01143584  0.81072789     0.84400
O1101       O  0.40814833  0.98890403  0.81862331    -0.77700
C1102       C  0.29231722  0.10866455  0.81335872     0.84500
C1103       C  0.31422399  0.00238918  0.75995927     0.84800
O1104       O  0.33417889  0.02906435  0.76764877    -0.80100
O1105       O  0.01464258  0.58423875  0.17869561    -0.77600
C1106       C  0.03594900  0.50099777  0.13467580     0.83400
O1107       O  0.46772892  0.46202588  0.19863986    -0.78700
O1108       O  0.07931264  0.41271617  0.17059818    -0.80200
O1109       O  0.14098340  0.51815798  0.19865917    -0.80000
O1110       O  0.06617088  0.59380982  0.19670436    -0.78600
Zn1111     Zn  0.01549472  0.52882432  0.17316750     1.55700
O1112       O  0.14028383  0.47470386  0.17554409    -0.80000
Cd1113     Cd  0.08385764  0.53579810  0.20183345     1.59700
Cd1114     Cd  0.02947941  0.45925154  0.20398647     1.59600
O1115       O  0.07701739  0.52737945  0.22998265    -0.80000
O1116       O  0.05216379  0.49903895  0.18703112    -1.90500
Cd1117     Cd  0.08312788  0.47081026  0.16797204     1.59900
O1118       O  0.04022046  0.47476273  0.23181608    -0.80000
O1119       O  0.06657446  0.48390522  0.14034229    -0.78600
C1120       C  0.44935448  0.48889544  0.18982936     0.83900
C1121       C  0.03593242  0.60632190  0.18821785     0.83600
O1122       O  0.01385180  0.51874216  0.14584152    -0.77600
C1123       C  0.15754180  0.49233337  0.18872677     0.84400
O1124       O  0.46616559  0.51484720  0.18082123    -0.77700
C1125       C  0.06018136  0.50145415  0.23949105     0.84500
C1126       C  0.08197734  0.39512349  0.18608635     0.84800
O1127       O  0.06462038  0.40804505  0.20065911    -0.80100
O1128       O  0.26463490  0.58424702  0.17869634    -0.77600
C1129       C  0.28594732  0.50100661  0.13467415     0.83400
O1130       O  0.21773425  0.46203267  0.19864309    -0.78700
O1131       O  0.32930476  0.41272254  0.17059490    -0.80200
O1132       O  0.39098623  0.51816768  0.19865234    -0.80000
O1133       O  0.31617409  0.59382209  0.19669742    -0.78600
Zn1134     Zn  0.26549037  0.52883207  0.17316649     1.55700
O1135       O  0.39028228  0.47470331  0.17554182    -0.80000
Cd1136     Cd  0.33386212  0.53581181  0.20182761     1.59700
Cd1137     Cd  0.27948619  0.45926390  0.20398530     1.59600
O1138       O  0.32702595  0.52740097  0.22997789    -0.80000
O1139       O  0.30216503  0.49905005  0.18702811    -1.90500
Cd1140     Cd  0.33312632  0.47081712  0.16796929     1.59900
O1141       O  0.29023274  0.47478193  0.23181314    -0.80000
O1142       O  0.31657397  0.48391554  0.14034021    -0.78600
C1143       C  0.19935531  0.48889782  0.18983176     0.83900
C1144       C  0.28592946  0.60633192  0.18821527     0.83600
O1145       O  0.26384893  0.51874932  0.14584011    -0.77600
C1146       C  0.40754172  0.49233636  0.18872286     0.84400
O1147       O  0.21616228  0.51484901  0.18082130    -0.77700
C1148       C  0.31019169  0.50147586  0.23948720     0.84500
C1149       C  0.33197461  0.39513123  0.18608329     0.84800
O1150       O  0.31462523  0.40805641  0.20065736    -0.80100
O1151       O  0.04705915  0.58417407  0.07075357    -0.77600
C1152       C  0.02575954  0.50098244  0.11477702     0.83400
O1153       O  0.09398992  0.46195975  0.05082195    -0.78700
O1154       O  0.48234135  0.41266535  0.07885315    -0.80200
O1155       O  0.42073786  0.51808292  0.05077939    -0.80000
O1156       O  0.49554733  0.59374194  0.05273361    -0.78600
Zn1157     Zn  0.04621677  0.52876684  0.07628048     1.55700
O1158       O  0.42142563  0.47469037  0.07392213    -0.80000
Cd1159     Cd  0.47786566  0.53572411  0.04760409     1.59700
Cd1160     Cd  0.03224501  0.45917947  0.04547331     1.59600
O1161       O  0.48473483  0.52728536  0.01945398    -0.80000
O1162       O  0.00954795  0.49897551  0.06241975    -1.90500
Cd1163     Cd  0.47857927  0.47076616  0.08148516     1.59900
O1164       O  0.02153546  0.47466925  0.01763906    -0.80000
O1165       O  0.49513813  0.48387650  0.10911427    -0.78600
C1166       C  0.11236235  0.48884159  0.05962408     0.83900
C1167       C  0.02577669  0.60625572  0.06122773     0.83600
O1168       O  0.04785687  0.51871268  0.10360671    -0.77600
C1169       C  0.40417360  0.49228858  0.06072811     0.84400
O1170       O  0.09555018  0.51479988  0.06862735    -0.77700
C1171       C  0.50158707  0.50135628  0.00995366     0.84500
C1172       C  0.47972254  0.39506038  0.06336568     0.84800
O1173       O  0.99711160  0.40797322  0.04880018    -0.80100
O1174       O  0.29705320  0.58418074  0.07075144    -0.77600
C1175       C  0.27575773  0.50099018  0.11477549     0.83400
O1176       O  0.34398878  0.46196852  0.05081987    -0.78700
O1177       O  0.23234546  0.41266591  0.07885284    -0.80200
O1178       O  0.17073559  0.51807973  0.05077957    -0.80000
O1179       O  0.24553853  0.59374768  0.05273349    -0.78600
Zn1180     Zn  0.29621415  0.52877342  0.07627875     1.55700
O1181       O  0.17142804  0.47468591  0.07392171    -0.80000
Cd1182     Cd  0.22786109  0.53572785  0.04760393     1.59700
Cd1183     Cd  0.28224318  0.45918385  0.04547157     1.59600
O1184       O  0.23472926  0.52729291  0.01945366    -0.80000
O1185       O  0.25954660  0.49897933  0.06241836    -1.90500
Cd1186     Cd  0.22858136  0.47076678  0.08148408     1.59900
O1187       O  0.27152782  0.47467527  0.01763803    -0.80000
O1188       O  0.24513857  0.48388020  0.10911287    -0.78600
C1189       C  0.36236137  0.48884901  0.05962308     0.83900
C1190       C  0.27576863  0.60626231  0.06122665     0.83600
O1191       O  0.29785343  0.51872203  0.10360507    -0.77600
C1192       C  0.15417412  0.49228330  0.06072812     0.84400
O1193       O  0.34554913  0.51480693  0.06862669    -0.77700
C1194       C  0.25157998  0.50136321  0.00995305     0.84500
C1195       C  0.22972544  0.39506074  0.06336551     0.84800
O1196       O  0.24711247  0.40797460  0.04879954    -0.80100
O1197       O  0.17211722  0.16954085  0.17868455    -0.77600
C1198       C  0.15079255  0.25273434  0.13467011     0.83400
O1199       O  0.21906316  0.29175965  0.19861741    -0.78700
O1200       O  0.10742112  0.34107198  0.17059283    -0.80200
O1201       O  0.04580662  0.23563704  0.19865908    -0.80000
O1202       O  0.12060382  0.15997762  0.19670401    -0.78600
Zn1203     Zn  0.17128313  0.22495294  0.17316226     1.55700
O1204       O  0.04650167  0.27905214  0.17552645    -0.80000
Cd1205     Cd  0.10293595  0.21800145  0.20183733     1.59700
Cd1206     Cd  0.15732184  0.29455257  0.20396283     1.59600
O1207       O  0.10981675  0.22645857  0.22998579    -0.80000
O1208       O  0.13461865  0.25475004  0.18702279    -1.90500
Cd1209     Cd  0.10364904  0.28297116  0.16796402     1.59900
O1210       O  0.14661952  0.27907585  0.23179359    -0.80000
O1211       O  0.12017899  0.26984562  0.14033738    -0.78600
C1212       C  0.23743435  0.26487147  0.18981947     0.83900
C1213       C  0.15082864  0.14745869  0.18820738     0.83600
O1214       O  0.17290168  0.23500787  0.14583629    -0.77600
C1215       C  0.02924562  0.26143917  0.18871390     0.84400
O1216       O  0.22062214  0.23891279  0.18081596    -0.77700
C1217       C  0.12667122  0.25239431  0.23948171     0.84500
C1218       C  0.10479489  0.35867261  0.18608107     0.84800
O1219       O  0.12218717  0.34575970  0.20064507    -0.80100
O1220       O  0.42211889  0.16954348  0.17868222    -0.77600
C1221       C  0.40079236  0.25273354  0.13466902     0.83400
O1222       O  0.46906418  0.29177225  0.19861010    -0.78700
O1223       O  0.35740143  0.34107118  0.17058999    -0.80200
O1224       O  0.29581085  0.23563761  0.19866470    -0.80000
O1225       O  0.37060944  0.15998165  0.19670438    -0.78600
Zn1226     Zn  0.42128474  0.22495634  0.17316087     1.55700
O1227       O  0.29649769  0.27903919  0.17552627    -0.80000
Cd1228     Cd  0.35294299  0.21800576  0.20183758     1.59700
Cd1229     Cd  0.40732443  0.29456232  0.20395806     1.59600
O1230       O  0.35983244  0.22646700  0.22998425    -0.80000
O1231       O  0.38462032  0.25475470  0.18702090    -1.90500
Cd1232     Cd  0.35364417  0.28296811  0.16796245     1.59900
O1233       O  0.39662846  0.27908950  0.23179003    -0.80000
O1234       O  0.37017630  0.26984092  0.14033609    -0.78600
C1235       C  0.48743497  0.26487964  0.18981526     0.83900
C1236       C  0.40083184  0.14746181  0.18820615     0.83600
O1237       O  0.42290427  0.23501112  0.14583533    -0.77600
C1238       C  0.27924552  0.26143274  0.18871705     0.84400
O1239       O  0.47062281  0.23891625  0.18081497    -0.77700
C1240       C  0.37668414  0.25240613  0.23947904     0.84500
C1241       C  0.35478845  0.35867785  0.18607719     0.84800
O1242       O  0.37218971  0.34576901  0.20063962    -0.80100
O1243       O  0.13960977  0.16947753  0.07076488    -0.77600
C1244       C  0.16095931  0.25271458  0.11477050     0.83400
O1245       O  0.09268272  0.29166625  0.05080781    -0.78700
O1246       O  0.20429478  0.34099423  0.07884946    -0.80200
O1247       O  0.26593870  0.23552891  0.05078305    -0.80000
O1248       O  0.19108210  0.15990742  0.05271774    -0.78600
Zn1249     Zn  0.14046099  0.22489253  0.07628491     1.55700
O1250       O  0.26524058  0.27899309  0.07389422    -0.80000
Cd1251     Cd  0.20880173  0.21791563  0.04760025     1.59700
Cd1252     Cd  0.15442802  0.29446566  0.04546542     1.59600
O1253       O  0.20195956  0.22636784  0.01945133    -0.80000
O1254       O  0.17712297  0.25467260  0.06241290    -1.90500
Cd1255     Cd  0.20809778  0.28289792  0.08146842     1.59900
O1256       O  0.16515991  0.27898379  0.01763274    -0.80000
O1257       O  0.19158690  0.26979231  0.10909818    -0.78600
C1258       C  0.07431098  0.26479118  0.05961525     0.83900
C1259       C  0.16086441  0.14739712  0.06122276     0.83600
O1260       O  0.13883845  0.23498749  0.10360956    -0.77600
C1261       C  0.28249835  0.26135375  0.06071552     0.84400
O1262       O  0.09112313  0.23884751  0.06862866    -0.77700
C1263       C  0.18511767  0.25230063  0.00994984     0.84500
C1264       C  0.20692435  0.35860012  0.06336344     0.84800
O1265       O  0.18954944  0.34568278  0.04879509    -0.80100
O1266       O  0.38960053  0.16948277  0.07076098    -0.77600
C1267       C  0.41095908  0.25271399  0.11476948     0.83400
O1268       O  0.34268164  0.29166718  0.05080336    -0.78700
O1269       O  0.45428897  0.34099515  0.07884894    -0.80200
O1270       O  0.01593936  0.23552423  0.05078560    -0.80000
O1271       O  0.44108180  0.15990932  0.05272024    -0.78600
Zn1272     Zn  0.39045875  0.22489597  0.07628367     1.55700
O1273       O  0.01524047  0.27899497  0.07389388    -0.80000
Cd1274     Cd  0.45880199  0.21791562  0.04760062     1.59700
Cd1275     Cd  0.40442827  0.29446586  0.04546315     1.59600
O1276       O  0.45196354  0.22636446  0.01945054    -0.80000
O1277       O  0.42712232  0.25467447  0.06241190    -1.90500
Cd1278     Cd  0.45809682  0.28289975  0.08146758     1.59900
O1279       O  0.41516485  0.27898102  0.01763106    -0.80000
O1280       O  0.44158569  0.26979345  0.10909715    -0.78600
C1281       C  0.32431005  0.26479588  0.05961356     0.83900
C1282       C  0.41085925  0.14740101  0.06122185     0.83600
O1283       O  0.38883894  0.23498601  0.10360858    -0.77600
C1284       C  0.03249911  0.26135066  0.06071701     0.84400
O1285       O  0.34112251  0.23885638  0.06862941    -0.77700
C1286       C  0.43512251  0.25229725  0.00994850     0.84500
C1287       C  0.45692096  0.35860057  0.06336296     0.84800
O1288       O  0.43954859  0.34568303  0.04879392    -0.80100
O1289       O  0.13961509  0.08423517  0.17868085    -0.77600
C1290       C  0.16093417  0.00098637  0.13465492     0.83400
O1291       O  0.09271141  0.96202065  0.19861838    -0.78700
O1292       O  0.20428209  0.91268776  0.17058060    -0.80200
O1293       O  0.26596798  0.01814372  0.19862106    -0.80000
O1294       O  0.19115661  0.09379980  0.19668093    -0.78600
Zn1295     Zn  0.14047898  0.02882025  0.17314505     1.55700
O1296       O  0.26526066  0.97467572  0.17551191    -0.80000
Cd1297     Cd  0.20884565  0.03578566  0.20180525     1.59700
Cd1298     Cd  0.15446172  0.95924510  0.20396770     1.59600
O1299       O  0.20202498  0.02737198  0.22995694    -0.80000
O1300       O  0.17714477  0.99902516  0.18700752    -1.90500
Cd1301     Cd  0.20810079  0.97078064  0.16794891     1.59900
O1302       O  0.16521101  0.97476856  0.23179757    -0.80000
O1303       O  0.19154453  0.98386784  0.14032107    -0.78600
C1304       C  0.07433645  0.98888026  0.18980081     0.83900
C1305       C  0.16091159  0.10631579  0.18820124     0.83600
O1306       O  0.13885233  0.01875231  0.14581945    -0.77600
C1307       C  0.28252312  0.99231433  0.18869023     0.84400
O1308       O  0.09114703  0.01482774  0.18078931    -0.77700
C1309       C  0.18518374  0.00145657  0.23946938     0.84500
C1310       C  0.20695758  0.89510741  0.18607160     0.84800
O1311       O  0.18960334  0.90803667  0.20064351    -0.80100
O1312       O  0.38961703  0.08423845  0.17867909    -0.77600
C1313       C  0.41094201  0.00099291  0.13465248     0.83400
O1314       O  0.34271207  0.96201680  0.19861183    -0.78700
O1315       O  0.45429984  0.91269196  0.17057714    -0.80200
O1316       O  0.01596588  0.01814318  0.19862709    -0.80000
O1317       O  0.44115760  0.09380167  0.19668004    -0.78600
Zn1318     Zn  0.39048011  0.02882279  0.17314279     1.55700
O1319       O  0.01526449  0.97468704  0.17551283    -0.80000
Cd1320     Cd  0.45884252  0.03578698  0.20180537     1.59700
Cd1321     Cd  0.40446120  0.95924304  0.20396322     1.59600
O1322       O  0.45201270  0.02737304  0.22995586    -0.80000
O1323       O  0.42714547  0.99902672  0.18700539    -1.90500
Cd1324     Cd  0.45810691  0.97078713  0.16794720     1.59900
O1325       O  0.41520755  0.97476302  0.23179425    -0.80000
O1326       O  0.44155337  0.98387657  0.14031898    -0.78600
C1327       C  0.32433645  0.98887732  0.18979530     0.83900
C1328       C  0.41091366  0.10631857  0.18819980     0.83600
O1329       O  0.38885755  0.01875605  0.14581691    -0.77600
C1330       C  0.03252341  0.99231823  0.18869456     0.84400
O1331       O  0.34114645  0.01482808  0.18078558    -0.77700
C1332       C  0.43517510  0.00145363  0.23946715     0.84500
C1333       C  0.45696073  0.89510539  0.18606710     0.84800
O1334       O  0.43959935  0.90803256  0.20063760    -0.80100
O1335       O  0.17204344  0.08417409  0.07074397    -0.77600
C1336       C  0.15074349  0.00097527  0.11475777     0.83400
O1337       O  0.21897265  0.96196147  0.05081015    -0.78700
O1338       O  0.10730660  0.91267420  0.07883891    -0.80200
O1339       O  0.04572040  0.01809127  0.05076176    -0.80000
O1340       O  0.12053303  0.09375203  0.05272508    -0.78600
Zn1341     Zn  0.17119890  0.02876716  0.07626525     1.55700
O1342       O  0.04640286  0.97469945  0.07390444    -0.80000
Cd1343     Cd  0.10284954  0.03573464  0.04759442     1.59700
Cd1344     Cd  0.15722716  0.95918001  0.04546388     1.59600
O1345       O  0.10972926  0.02729774  0.01944741    -0.80000
O1346       O  0.13452817  0.99897932  0.06240667    -1.90500
Cd1347     Cd  0.10355355  0.97077360  0.08146910     1.59900
O1348       O  0.14651779  0.97467206  0.01763296    -0.80000
O1349       O  0.12011675  0.98387802  0.10909615    -0.78600
C1350       C  0.23734409  0.98884908  0.05960848     0.83900
C1351       C  0.15076418  0.10626047  0.06121949     0.83600
O1352       O  0.17284370  0.01870255  0.10358807    -0.77600
C1353       C  0.02915441  0.99229535  0.06070880     0.84400
O1354       O  0.22053084  0.01480940  0.06860944    -0.77700
C1355       C  0.12657607  0.00136388  0.00994823     0.84500
C1356       C  0.10470000  0.89506263  0.06335297     0.84800
O1357       O  0.12209544  0.90797186  0.04878849    -0.80100
O1358       O  0.42204540  0.08417721  0.07073850    -0.77600
C1359       C  0.40075131  0.00098035  0.11475523     0.83400
O1360       O  0.46897027  0.96197075  0.05080166    -0.78700
O1361       O  0.35732335  0.91267594  0.07883533    -0.80200
O1362       O  0.29571690  0.01809159  0.05076635    -0.80000
O1363       O  0.37052200  0.09375773  0.05272850    -0.78600
Zn1364     Zn  0.42120053  0.02877207  0.07626151     1.55700
O1365       O  0.29640854  0.97469454  0.07390681    -0.80000
Cd1366     Cd  0.35284283  0.03574075  0.04759428     1.59700
Cd1367     Cd  0.40722310  0.95919040  0.04545747     1.59600
O1368       O  0.35971521  0.02731335  0.01944500    -0.80000
O1369       O  0.38452798  0.99898538  0.06240359    -1.90500
Cd1370     Cd  0.35356178  0.97077396  0.08146739     1.59900
O1371       O  0.39650628  0.97468983  0.01762798    -0.80000
O1372       O  0.37012753  0.98387768  0.10909394    -0.78600
C1373       C  0.48734298  0.98885443  0.05960231     0.83900
C1374       C  0.40075897  0.10626481  0.06121856     0.83600
O1375       O  0.42284777  0.01871148  0.10358516    -0.77600
C1376       C  0.27915538  0.99229271  0.06071336     0.84400
O1377       O  0.47053086  0.01481204  0.06860549    -0.77700
C1378       C  0.37656246  0.00138157  0.00994439     0.84500
C1379       C  0.35470471  0.89506905  0.06334863     0.84800
O1380       O  0.37209082  0.90798199  0.04878231    -0.80100
O1381       O  0.04712830  0.66954153  0.17869161    -0.77600
C1382       C  0.02580682  0.75272231  0.13467349     0.83400
O1383       O  0.09406672  0.79178166  0.19861115    -0.78700
O1384       O  0.48242605  0.84105125  0.17058192    -0.80200
O1385       O  0.42081502  0.73563232  0.19867015    -0.80000
O1386       O  0.49562328  0.65998081  0.19671774    -0.78600
Zn1387     Zn  0.04629787  0.72495268  0.17316837     1.55700
O1388       O  0.42150794  0.77903875  0.17553391    -0.80000
Cd1389     Cd  0.47794768  0.71800113  0.20184574     1.59700
Cd1390     Cd  0.03232461  0.79456019  0.20396013     1.59600
O1391       O  0.48483863  0.72646618  0.22999261    -0.80000
O1392       O  0.00962755  0.75474429  0.18702654    -1.90500
Cd1393     Cd  0.47865239  0.78294810  0.16796497     1.59900
O1394       O  0.02163612  0.77908825  0.23179369    -0.80000
O1395       O  0.49517751  0.76980709  0.14033970    -0.78600
C1396       C  0.11244168  0.76488088  0.18982398     0.83900
C1397       C  0.02584619  0.64746236  0.18821961     0.83600
O1398       O  0.04793100  0.73501768  0.14584125    -0.77600
C1399       C  0.40425346  0.76143286  0.18872404     0.84400
O1400       O  0.09563274  0.73890783  0.18082897    -0.77700
C1401       C  0.50169516  0.75240531  0.23948544     0.84500
C1402       C  0.47978525  0.85865795  0.18606799     0.84800
O1403       O  0.99717225  0.84575461  0.20063551    -0.80100
O1404       O  0.29712111  0.66955036  0.17868728    -0.77600
C1405       C  0.27581262  0.75273860  0.13467342     0.83400
O1406       O  0.34407157  0.79178028  0.19861247    -0.78700
O1407       O  0.23243518  0.84106202  0.17058481    -0.80200
O1408       O  0.17081590  0.73564206  0.19866848    -0.80000
O1409       O  0.24562446  0.65999191  0.19671919    -0.78600
Zn1410     Zn  0.29629555  0.72496114  0.17316714     1.55700
O1411       O  0.17150847  0.77905183  0.17553364    -0.80000
Cd1412     Cd  0.22794827  0.71801305  0.20184624     1.59700
Cd1413     Cd  0.28233021  0.79456710  0.20396105     1.59600
O1414       O  0.23483536  0.72648251  0.22999305    -0.80000
O1415       O  0.25962892  0.75475439  0.18702673    -1.90500
Cd1416     Cd  0.22865545  0.78296094  0.16796555     1.59900
O1417       O  0.27164179  0.77909813  0.23179440    -0.80000
O1418       O  0.24518462  0.76982550  0.14033984    -0.78600
C1419       C  0.36244263  0.76487626  0.18982574     0.83900
C1420       C  0.27584276  0.64747221  0.18821759     0.83600
O1421       O  0.29793403  0.73502997  0.14584084    -0.77600
C1422       C  0.15425344  0.76144257  0.18872274     0.84400
O1423       O  0.34563045  0.73890682  0.18082985    -0.77700
C1424       C  0.25169529  0.75241923  0.23948594     0.84500
C1425       C  0.22978962  0.85866491  0.18607159     0.84800
O1426       O  0.24717744  0.84576146  0.20063882    -0.80100
O1427       O  0.01460827  0.66947538  0.07076623    -0.77600
C1428       C  0.03597040  0.75270665  0.11477295     0.83400
O1429       O  0.46767904  0.79164653  0.05079457    -0.78700
O1430       O  0.07928852  0.84099277  0.07883931    -0.80200
O1431       O  0.14093682  0.73552504  0.05078384    -0.80000
O1432       O  0.06608961  0.65990463  0.05272496    -0.78600
Zn1433     Zn  0.01545944  0.72489133  0.07628694     1.55700
O1434       O  0.14023707  0.77898920  0.07389488    -0.80000
Cd1435     Cd  0.08380162  0.71791108  0.04760137     1.59700
Cd1436     Cd  0.02942385  0.79445192  0.04545842     1.59600
O1437       O  0.07696480  0.72635114  0.01945094    -0.80000
O1438       O  0.05211997  0.75466900  0.06241190    -1.90500
Cd1439     Cd  0.08309417  0.78289835  0.08146624     1.59900
O1440       O  0.04016511  0.77896586  0.01762820    -0.80000
O1441       O  0.06659117  0.76979393  0.10909846    -0.78600
C1442       C  0.44930783  0.76478484  0.05961151     0.83900
C1443       C  0.03587037  0.64739390  0.06122838     0.83600
O1444       O  0.01384940  0.73497778  0.10361274    -0.77600
C1445       C  0.15749581  0.76134849  0.06071706     0.84400
O1446       O  0.46611993  0.73885438  0.06863417    -0.77700
C1447       C  0.06012489  0.75228209  0.00994749     0.84500
C1448       C  0.08190839  0.85859751  0.06335250     0.84800
O1449       O  0.06453199  0.84567632  0.04878539    -0.80100
O1450       O  0.26460733  0.66948157  0.07076920    -0.77600
C1451       C  0.28597580  0.75272100  0.11477285     0.83400
O1452       O  0.21767523  0.79165425  0.05079873    -0.78700
O1453       O  0.32929842  0.84099896  0.07883629    -0.80200
O1454       O  0.39093386  0.73552441  0.05078033    -0.80000
O1455       O  0.31607686  0.65991227  0.05271995    -0.78600
Zn1456     Zn  0.26546150  0.72489882  0.07628870     1.55700
O1457       O  0.39024038  0.77898972  0.07389087    -0.80000
Cd1458     Cd  0.33379532  0.71791843  0.04759910     1.59700
Cd1459     Cd  0.27941860  0.79446141  0.04545980     1.59600
O1460       O  0.32695669  0.72636688  0.01944978    -0.80000
O1461       O  0.30211878  0.75467693  0.06241152    -1.90500
Cd1462     Cd  0.33309873  0.78290474  0.08146406     1.59900
O1463       O  0.29015352  0.77897937  0.01762868    -0.80000
O1464       O  0.31659658  0.76980690  0.10909734    -0.78600
C1465       C  0.19930667  0.76479098  0.05961580     0.83900
C1466       C  0.28586249  0.64740087  0.06122720     0.83600
O1467       O  0.26385469  0.73498960  0.10361371    -0.77600
C1468       C  0.40749644  0.76134655  0.06071298     0.84400
O1469       O  0.21612116  0.73886081  0.06863754    -0.77700
C1470       C  0.31011506  0.75229743  0.00994722     0.84500
C1471       C  0.33191141  0.85860493  0.06334957     0.84800
O1472       O  0.31452767  0.84568568  0.04878414    -0.80100
O1473       O  0.61053281  0.48511784  0.35360098    -0.77600
C1474       C  0.58845084  0.39754010  0.31122802     0.83400
O1475       O  0.65664823  0.54184405  0.30080127    -0.78700
O1476       O  0.54735209  0.47647517  0.26946789    -0.80200
O1477       O  0.98409778  0.52916491  0.32390752    -0.80000
O1478       O  0.55782304  0.51997297  0.35910341    -0.78600
Zn1479     Zn  0.60888986  0.47504040  0.32627546     1.55700
O1480       O  0.98339530  0.48571430  0.30079102    -0.80000
Cd1481     Cd  0.54125580  0.53305872  0.33147554     1.59700
Cd1482     Cd  0.59489726  0.54461282  0.29545957     1.59600
O1483       O  0.54506289  0.59115343  0.32884724    -0.80000
O1484       O  0.57221548  0.50482641  0.31241603    -1.90500
Cd1485     Cd  0.54051701  0.46806279  0.29761814     1.59900
O1486       O  0.55977349  0.59582756  0.29878813    -0.80000
O1487       O  0.55820032  0.41004909  0.30275020    -0.78600
C1488       C  0.67502538  0.51498069  0.30961446     0.83900
C1489       C  0.58844615  0.50287304  0.36476745     0.83600
O1490       O  0.60975130  0.41962689  0.32074272    -0.77600
C1491       C  0.96683948  0.51154048  0.31072331     0.84400
O1492       O  0.65821695  0.48902990  0.31862429    -0.77700
C1493       C  0.54241610  0.60875216  0.31335998     0.84500
C1494       C  0.56418229  0.50240327  0.25995870     0.84800
O1495       O  0.58414122  0.52909759  0.26763254    -0.80100
O1496       O  0.86052857  0.48513133  0.35359862    -0.77600
C1497       C  0.83844674  0.39755163  0.31122310     0.83400
O1498       O  0.90665460  0.54185206  0.30080351    -0.78700
O1499       O  0.79735932  0.47649805  0.26946322    -0.80200
O1500       O  0.73409447  0.52916652  0.32390608    -0.80000
O1501       O  0.80781642  0.51998199  0.35910141    -0.78600
Zn1502     Zn  0.85888434  0.47505119  0.32627340     1.55700
O1503       O  0.73339687  0.48572506  0.30078541    -0.80000
Cd1504     Cd  0.79125159  0.53306864  0.33147318     1.59700
Cd1505     Cd  0.84490366  0.54462936  0.29545876     1.59600
O1506       O  0.79505145  0.59116363  0.32884595    -0.80000
O1507       O  0.82221494  0.50484134  0.31241287    -1.90500
Cd1508     Cd  0.79051990  0.46807906  0.29761221     1.59900
O1509       O  0.80978363  0.59584667  0.29878925    -0.80000
O1510       O  0.80820230  0.41006333  0.30274116    -0.78600
C1511       C  0.92502703  0.51498335  0.30961541     0.83900
C1512       C  0.83844061  0.50288400  0.36476536     0.83600
O1513       O  0.85974119  0.41963648  0.32074203    -0.77600
C1514       C  0.71683800  0.51154432  0.31072063     0.84400
O1515       O  0.90821358  0.48903244  0.31862282    -0.77700
C1516       C  0.79241708  0.60876720  0.31335952     0.84500
C1517       C  0.81419121  0.50242637  0.25995493     0.84800
O1518       O  0.83414975  0.52911996  0.26762980    -0.80100
O1519       O  0.57656211  0.48515040  0.39583642    -0.77600
C1520       C  0.59864569  0.39761930  0.43821058     0.83400
O1521       O  0.53043210  0.54193765  0.44861179    -0.78700
O1522       O  0.63970906  0.47658843  0.47996951    -0.80200
O1523       O  0.70299179  0.52921865  0.42551353    -0.80000
O1524       O  0.62925970  0.52001721  0.39032384    -0.78600
Zn1525     Zn  0.57820045  0.47511031  0.42316216     1.55700
O1526       O  0.70368631  0.48581007  0.44864880    -0.80000
Cd1527     Cd  0.64583357  0.53313014  0.41795053     1.59700
Cd1528     Cd  0.59218009  0.54470438  0.45396334     1.59600
O1529       O  0.64206065  0.59123105  0.42058440    -0.80000
O1530       O  0.61487293  0.50490925  0.43701517    -1.90500
Cd1531     Cd  0.64656465  0.46815443  0.45182123     1.59900
O1532       O  0.62732477  0.59590460  0.45064113    -0.80000
O1533       O  0.62889116  0.41013148  0.44669202    -0.78600
C1534       C  0.51205836  0.51505760  0.43980858     0.83900
C1535       C  0.59864537  0.50289328  0.38466445     0.83600
O1536       O  0.57734670  0.41970473  0.42869570    -0.77600
C1537       C  0.72024622  0.51161597  0.43870568     0.84400
O1538       O  0.52887044  0.48909290  0.43081001    -0.77700
C1539       C  0.64470422  0.60882322  0.43607432     0.84500
C1540       C  0.62286506  0.50251670  0.48947347     0.84800
O1541       O  0.60290575  0.52920274  0.48179394    -0.80100
O1542       O  0.82655468  0.48516167  0.39583439    -0.77600
C1543       C  0.84864476  0.39762086  0.43820395     0.83400
O1544       O  0.78043349  0.54193372  0.44861696    -0.78700
O1545       O  0.88971560  0.47658074  0.47996648    -0.80200
O1546       O  0.95299039  0.52922415  0.42551077    -0.80000
O1547       O  0.87925674  0.52002169  0.39032187    -0.78600
Zn1548     Zn  0.82819757  0.47511491  0.42315976     1.55700
O1549       O  0.95368705  0.48580696  0.44864223    -0.80000
Cd1550     Cd  0.89583106  0.53313312  0.41794869     1.59700
Cd1551     Cd  0.84218272  0.54470182  0.45396385     1.59600
O1552       O  0.89205451  0.59123365  0.42058368    -0.80000
O1553       O  0.86487260  0.50490959  0.43701323    -1.90500
Cd1554     Cd  0.89656606  0.46815191  0.45181691     1.59900
O1555       O  0.87732498  0.59590338  0.45064128    -0.80000
O1556       O  0.87889140  0.41013097  0.44668508    -0.78600
C1557       C  0.76205856  0.51505637  0.43981246     0.83900
C1558       C  0.84863970  0.50290259  0.38466246     0.83600
O1559       O  0.82734466  0.41970814  0.42869063    -0.77600
C1560       C  0.97024601  0.51161667  0.43870104     0.84400
O1561       O  0.77886930  0.48909559  0.43081069    -0.77700
C1562       C  0.89470116  0.60882399  0.43607395     0.84500
C1563       C  0.87287410  0.50250933  0.48947137     0.84800
O1564       O  0.85291540  0.52919689  0.48179281    -0.80100
O1565       O  0.70152700  0.76888762  0.35361211    -0.77600
C1566       C  0.72356541  0.85643054  0.31122421     0.83400
O1567       O  0.65535838  0.71214591  0.30082198    -0.78700
O1568       O  0.76459801  0.77743885  0.26944905    -0.80200
O1569       O  0.82792109  0.72486720  0.32391267    -0.80000
O1570       O  0.75425976  0.73406277  0.35910549    -0.78600
Zn1571     Zn  0.70313926  0.77894238  0.32628420     1.55700
O1572       O  0.82861403  0.76827038  0.30077467    -0.80000
Cd1573     Cd  0.77077790  0.72094121  0.33147703     1.59700
Cd1574     Cd  0.71709868  0.70935108  0.29547870     1.59600
O1575       O  0.76701572  0.66284006  0.32885028    -0.80000
O1576       O  0.73980247  0.74915389  0.31241786    -1.90500
Cd1577     Cd  0.77147921  0.78589954  0.29759732     1.59900
O1578       O  0.75222435  0.65814111  0.29880070    -0.80000
O1579       O  0.75378795  0.84391665  0.30272394    -0.78600
C1580       C  0.63698767  0.73902877  0.30962363     0.83900
C1581       C  0.72364446  0.75116531  0.36477624     0.83600
O1582       O  0.70229367  0.83435003  0.32075673    -0.77600
C1583       C  0.84517611  0.74247336  0.31072293     0.84400
O1584       O  0.65379999  0.76497972  0.31863223    -0.77700
C1585       C  0.76962140  0.64523006  0.31336378     0.84500
C1586       C  0.74774292  0.75150043  0.25995542     0.84800
O1587       O  0.72779863  0.72481954  0.26764639    -0.80100
O1588       O  0.95153190  0.76888573  0.35361226    -0.77600
C1589       C  0.97356966  0.85642363  0.31122021     0.83400
O1590       O  0.90535484  0.71214253  0.30082129    -0.78700
O1591       O  0.51459878  0.77742428  0.26944842    -0.80200
O1592       O  0.57792335  0.72486338  0.32391412    -0.80000
O1593       O  0.50425987  0.73405402  0.35910640    -0.78600
Zn1594     Zn  0.95314295  0.77893614  0.32628355     1.55700
O1595       O  0.57861304  0.76826262  0.30077424    -0.80000
Cd1596     Cd  0.52077969  0.72093095  0.33147783     1.59700
Cd1597     Cd  0.96709634  0.70933860  0.29547938     1.59600
O1598       O  0.51702401  0.66282880  0.32885094    -0.80000
O1599       O  0.98980347  0.74914218  0.31241788    -1.90500
Cd1600     Cd  0.52147893  0.78588814  0.29759618     1.59900
O1601       O  0.00221682  0.65812428  0.29880308    -0.80000
O1602       O  0.50379078  0.84390765  0.30271966    -0.78600
C1603       C  0.88698689  0.73902790  0.30962266     0.83900
C1604       C  0.97364723  0.75116190  0.36477689     0.83600
O1605       O  0.95229920  0.83434434  0.32075415    -0.77600
C1606       C  0.59517698  0.74246925  0.31072377     0.84400
O1607       O  0.90380228  0.76497619  0.31863173    -0.77700
C1608       C  0.51962018  0.64521527  0.31336498     0.84500
C1609       C  0.49774395  0.75148527  0.25995508     0.84800
O1610       O  0.97780002  0.72480437  0.26764645    -0.80100
O1611       O  0.73561353  0.76888824  0.39583955    -0.77600
C1612       C  0.71356904  0.85647164  0.43821269     0.83400
O1613       O  0.78176826  0.71218240  0.44864424    -0.78700
O1614       O  0.67250729  0.77751524  0.47999315    -0.80200
O1615       O  0.60921356  0.72485434  0.42555547    -0.80000
O1616       O  0.68285701  0.73409594  0.39034940    -0.78600
Zn1617     Zn  0.73400049  0.77896913  0.42316656     1.55700
O1618       O  0.60851427  0.76831844  0.44866626    -0.80000
Cd1619     Cd  0.66635784  0.72096770  0.41797857     1.59700
Cd1620     Cd  0.72002042  0.70939575  0.45398258     1.59600
O1621       O  0.67018567  0.66287160  0.42059300    -0.80000
O1622       O  0.69733173  0.74919211  0.43703451    -1.90500
Cd1623     Cd  0.66564705  0.78594992  0.45184304     1.59900
O1624       O  0.68488542  0.65818830  0.45065226    -0.80000
O1625       O  0.68333918  0.84396171  0.44670807    -0.78600
C1626       C  0.80014379  0.73905475  0.43983672     0.83900
C1627       C  0.71348453  0.75117436  0.38467715     0.83600
O1628       O  0.73485098  0.83438525  0.42868800    -0.77600
C1629       C  0.59195552  0.74249164  0.43873476     0.84400
O1630       O  0.78333483  0.76499956  0.43082259    -0.77700
C1631       C  0.66752530  0.64527210  0.43607963     0.84500
C1632       C  0.68934689  0.75158023  0.48949486     0.84800
O1633       O  0.70929239  0.72488813  0.48181246    -0.80100
O1634       O  0.98561622  0.76888823  0.39584031    -0.77600
C1635       C  0.96357048  0.85647230  0.43821562     0.83400
O1636       O  0.53176793  0.71217784  0.44864233    -0.78700
O1637       O  0.92251022  0.77751231  0.47999331    -0.80200
O1638       O  0.85921457  0.72485868  0.42555612    -0.80000
O1639       O  0.93285857  0.73409756  0.39035036    -0.78600
Zn1640     Zn  0.98400100  0.77897047  0.42316779     1.55700
O1641       O  0.85851489  0.76831982  0.44866816    -0.80000
Cd1642     Cd  0.91635857  0.72096992  0.41797937     1.59700
Cd1643     Cd  0.97002070  0.70939321  0.45398224     1.59600
O1644       O  0.92018262  0.66287322  0.42059311    -0.80000
O1645       O  0.94733284  0.74919234  0.43703540    -1.90500
Cd1646     Cd  0.91564864  0.78594969  0.45184427     1.59900
O1647       O  0.93488407  0.65818722  0.45065200    -0.80000
O1648       O  0.93334128  0.84396191  0.44671133    -0.78600
C1649       C  0.55014336  0.73905245  0.43983637     0.83900
C1650       C  0.96348698  0.75117413  0.38467797     0.83600
O1651       O  0.98485127  0.83438654  0.42868997    -0.77600
C1652       C  0.84195615  0.74249446  0.43873577     0.84400
O1653       O  0.53333451  0.76500041  0.43082434    -0.77700
C1654       C  0.91752275  0.64527254  0.43607946     0.84500
C1655       C  0.93934881  0.75157625  0.48949461     0.84800
O1656       O  0.95929385  0.72488396  0.48181216    -0.80100
O1657       O  0.57649587  0.26884229  0.35359988    -0.77600
C1658       C  0.59854106  0.35639975  0.31122492     0.83400
O1659       O  0.53032280  0.21210879  0.30081517    -0.78700
O1660       O  0.63956449  0.27740860  0.26944633    -0.80200
O1661       O  0.70289094  0.22482267  0.32390181    -0.80000
O1662       O  0.62924016  0.23403583  0.35909614    -0.78600
Zn1663     Zn  0.57810465  0.27890516  0.32627474     1.55700
O1664       O  0.70357827  0.26823783  0.30076948    -0.80000
Cd1665     Cd  0.64574825  0.22090518  0.33146828     1.59700
Cd1666     Cd  0.59206465  0.20931644  0.29547083     1.59600
O1667       O  0.64197225  0.16280621  0.32884188    -0.80000
O1668       O  0.61476856  0.24911783  0.31241065    -1.90500
Cd1669     Cd  0.64644521  0.28586663  0.29759422     1.59900
O1670       O  0.62720431  0.15811530  0.29878975    -0.80000
O1671       O  0.62876372  0.34388485  0.30272526    -0.78600
C1672       C  0.51195246  0.23899535  0.30961458     0.83900
C1673       C  0.59862006  0.25113199  0.36476507     0.83600
O1674       O  0.57726331  0.33431705  0.32075322    -0.77600
C1675       C  0.72014285  0.24243589  0.31071343     0.84400
O1676       O  0.52876551  0.26494838  0.31862133    -0.77700
C1677       C  0.64459891  0.14520555  0.31335368     0.84500
C1678       C  0.62271161  0.25147169  0.25995075     0.84800
O1679       O  0.60276493  0.22478962  0.26763935    -0.80100
O1680       O  0.82649440  0.26885512  0.35359492    -0.77600
C1681       C  0.84853667  0.35641047  0.31121972     0.83400
O1682       O  0.78032415  0.21211346  0.30080904    -0.78700
O1683       O  0.88957846  0.27741864  0.26944410    -0.80200
O1684       O  0.95288402  0.22481887  0.32389922    -0.80000
O1685       O  0.87922412  0.23402564  0.35908983    -0.78600
Zn1686     Zn  0.82810291  0.27891458  0.32626933     1.55700
O1687       O  0.95358200  0.26824747  0.30077276    -0.80000
Cd1688     Cd  0.89573932  0.22090322  0.33146234     1.59700
Cd1689     Cd  0.84206563  0.20932526  0.29546440     1.59600
O1690       O  0.89196043  0.16280512  0.32883302    -0.80000
O1691       O  0.86476727  0.24912562  0.31240559    -1.90500
Cd1692     Cd  0.89644923  0.28587697  0.29759270     1.59900
O1693       O  0.87720382  0.15812098  0.29877980    -0.80000
O1694       O  0.87876291  0.34389597  0.30272264    -0.78600
C1695       C  0.76195328  0.23899622  0.30961087     0.83900
C1696       C  0.84861044  0.25113239  0.36475930     0.83600
O1697       O  0.82725613  0.33432683  0.32074608    -0.77600
C1698       C  0.97014168  0.24243879  0.31071476     0.84400
O1699       O  0.77876553  0.26494935  0.31861787    -0.77700
C1700       C  0.89459286  0.14520725  0.31334436     0.84500
C1701       C  0.87272284  0.25148449  0.25994773     0.84800
O1702       O  0.85277013  0.22480557  0.26763505    -0.80100
O1703       O  0.61058504  0.26887898  0.39582475    -0.77600
C1704       C  0.58855249  0.35647947  0.43820951     0.83400
O1705       O  0.65674656  0.21220873  0.44862283    -0.78700
O1706       O  0.54749164  0.27749658  0.47998539    -0.80200
O1707       O  0.98417845  0.22491486  0.42552988    -0.80000
O1708       O  0.55783309  0.23407838  0.39033837    -0.78600
Zn1709     Zn  0.60896136  0.27898246  0.42314918     1.55700
O1710       O  0.98348830  0.26834269  0.44865693    -0.80000
Cd1711     Cd  0.54131989  0.22098647  0.41796689     1.59700
Cd1712     Cd  0.59500524  0.20940411  0.45396561     1.59600
O1713       O  0.54509143  0.16289173  0.42059152    -0.80000
O1714       O  0.57230245  0.24920078  0.43702215    -1.90500
Cd1715     Cd  0.54062784  0.28595376  0.45183780     1.59900
O1716       O  0.55988725  0.15818566  0.45064027    -0.80000
O1717       O  0.55834062  0.34396451  0.44671792    -0.78600
C1718       C  0.67511459  0.23909101  0.43981923     0.83900
C1719       C  0.58846100  0.25115239  0.38466499     0.83600
O1720       O  0.60980684  0.33440084  0.42866601    -0.77600
C1721       C  0.96692395  0.24253799  0.43871415     0.84400
O1722       O  0.65829992  0.26503564  0.43080760    -0.77700
C1723       C  0.54249132  0.14527647  0.43607607     0.84500
C1724       C  0.56434370  0.25156487  0.48948390     0.84800
O1725       O  0.58429416  0.22488151  0.48179805    -0.80100
O1726       O  0.86057528  0.26888305  0.39581802    -0.77600
C1727       C  0.83855068  0.35648153  0.43820238     0.83400
O1728       O  0.90674479  0.21221742  0.44862010    -0.78700
O1729       O  0.79749423  0.27750592  0.47998121    -0.80200
O1730       O  0.73417693  0.22490767  0.42553199    -0.80000
O1731       O  0.80782706  0.23407477  0.39033395    -0.78600
Zn1732     Zn  0.85895897  0.27898445  0.42314230     1.55700
O1733       O  0.73349025  0.26834206  0.44865619    -0.80000
Cd1734     Cd  0.79131728  0.22098475  0.41796397     1.59700
Cd1735     Cd  0.84500407  0.20941059  0.45396192     1.59600
O1736       O  0.79509610  0.16289050  0.42059014    -0.80000
O1737       O  0.82230139  0.24920400  0.43701701    -1.90500
Cd1738     Cd  0.79062860  0.28595744  0.45183320     1.59900
O1739       O  0.80988536  0.15819161  0.45063968    -0.80000
O1740       O  0.80833850  0.34396731  0.44671074    -0.78600
C1741       C  0.92511337  0.23909609  0.43981423     0.83900
C1742       C  0.83845202  0.25115282  0.38465931     0.83600
O1743       O  0.85980552  0.33440245  0.42865939    -0.77600
C1744       C  0.71692498  0.24253286  0.43871654     0.84400
O1745       O  0.90829943  0.26503665  0.43079933    -0.77700
C1746       C  0.79249174  0.14527905  0.43607562     0.84500
C1747       C  0.81434502  0.25157371  0.48947984     0.84800
O1748       O  0.83429425  0.22488963  0.48179395    -0.80100
O1749       O  0.73553637  0.98516074  0.35359567    -0.77600
C1750       C  0.71346933  0.89756842  0.31122426     0.83400
O1751       O  0.78166341  0.04183707  0.30078375    -0.78700
O1752       O  0.67236627  0.97648574  0.26944968    -0.80200
O1753       O  0.60910197  0.02916508  0.32389572    -0.80000
O1754       O  0.68280828  0.01998520  0.35909739    -0.78600
Zn1755     Zn  0.73389379  0.97506996  0.32627198     1.55700
O1756       O  0.60841086  0.98572735  0.30077338    -0.80000
Cd1757     Cd  0.66625733  0.03306682  0.33146537     1.59700
Cd1758     Cd  0.71990975  0.04462495  0.29544189     1.59600
O1759       O  0.67006428  0.09115796  0.32883624    -0.80000
O1760       O  0.69722633  0.00484673  0.31240335    -1.90500
Cd1761     Cd  0.66553674  0.96808247  0.29760130     1.59900
O1762       O  0.68478013  0.09583752  0.29877715    -0.80000
O1763       O  0.68323352  0.91007433  0.30273327    -0.78600
C1764       C  0.80003680  0.01497894  0.30960319     0.83900
C1765       C  0.71343882  0.00290021  0.36476251     0.83600
O1766       O  0.73474900  0.91965562  0.32074941    -0.77600
C1767       C  0.59184889  0.01154529  0.31070844     0.84400
O1768       O  0.78322448  0.98904128  0.31862008    -0.77700
C1769       C  0.66741436  0.10875487  0.31334869     0.84500
C1770       C  0.68919086  0.00241290  0.25993806     0.84800
O1771       O  0.70914799  0.02911110  0.26761093    -0.80100
O1772       O  0.98553740  0.98515102  0.35359310    -0.77600
C1773       C  0.96347395  0.89756239  0.31121942     0.83400
O1774       O  0.53166103  0.04184046  0.30078005    -0.78700
O1775       O  0.92235710  0.97648255  0.26944757    -0.80200
O1776       O  0.85910505  0.02915840  0.32389663    -0.80000
O1777       O  0.93282170  0.01999451  0.35909452    -0.78600
Zn1778     Zn  0.98389526  0.97506583  0.32626821     1.55700
O1779       O  0.85840969  0.98571934  0.30077473    -0.80000
Cd1780     Cd  0.91626139  0.03306844  0.33146247     1.59700
Cd1781     Cd  0.96990680  0.04462317  0.29543798     1.59600
O1782       O  0.92005620  0.09116030  0.32882845    -0.80000
O1783       O  0.94722611  0.00484395  0.31240029    -1.90500
Cd1784     Cd  0.91553535  0.96807675  0.29759952     1.59900
O1785       O  0.93477580  0.09583661  0.29876974    -0.80000
O1786       O  0.93323616  0.91006782  0.30272978    -0.78600
C1787       C  0.55003573  0.01498422  0.30960024     0.83900
C1788       C  0.96344657  0.00289940  0.36475984     0.83600
O1789       O  0.98475478  0.91965069  0.32074349    -0.77600
C1790       C  0.84184969  0.01153766  0.31071037     0.84400
O1791       O  0.53322455  0.98904531  0.31861690    -0.77700
C1792       C  0.91740805  0.10875569  0.31334040     0.84500
C1793       C  0.93918275  0.00240869  0.25993573     0.84800
O1794       O  0.95914320  0.02910499  0.26760814    -0.80100
O1795       O  0.70155275  0.98516629  0.39583109    -0.77600
C1796       C  0.72365753  0.89761206  0.43820887     0.83400
O1797       O  0.65543386  0.04190023  0.44862268    -0.78700
O1798       O  0.76471481  0.97657056  0.47997689    -0.80200
O1799       O  0.82799986  0.02916973  0.42550315    -0.80000
O1800       O  0.75425582  0.02002384  0.39032096    -0.78600
Zn1801     Zn  0.70320682  0.97510310  0.42315662     1.55700
O1802       O  0.82868636  0.98579544  0.44865349    -0.80000
Cd1803     Cd  0.77084119  0.03310622  0.41794905     1.59700
Cd1804     Cd  0.71718259  0.04468704  0.45396855     1.59600
O1805       O  0.76709968  0.09120330  0.42058845    -0.80000
O1806       O  0.73987539  0.00489831  0.43701624    -1.90500
Cd1807     Cd  0.77156443  0.96814674  0.45182644     1.59900
O1808       O  0.75230670  0.09590120  0.45063927    -0.80000
O1809       O  0.75389236  0.91012891  0.44669695    -0.78600
C1810       C  0.63706219  0.01502573  0.43981446     0.83900
C1811       C  0.72363567  0.00291304  0.38466031     0.83600
O1812       O  0.70236633  0.91969209  0.42868612    -0.77600
C1813       C  0.84525065  0.01158285  0.43870131     0.84400
O1814       O  0.65387533  0.98907221  0.43080867    -0.77700
C1815       C  0.76970252  0.10881272  0.43607506     0.84500
C1816       C  0.74787636  0.00250110  0.48948141     0.84800
O1817       O  0.72792126  0.02919004  0.48180100    -0.80100
O1818       O  0.95156012  0.98516195  0.39582824    -0.77600
C1819       C  0.97365831  0.89761280  0.43821153     0.83400
O1820       O  0.90543211  0.04190009  0.44861684    -0.78700
O1821       O  0.51470366  0.97657946  0.47997853    -0.80200
O1822       O  0.57800190  0.02916661  0.42550603    -0.80000
O1823       O  0.50426227  0.02002174  0.39031970    -0.78600
Zn1824     Zn  0.95321002  0.97510060  0.42315449     1.55700
O1825       O  0.57868430  0.98580100  0.44866014    -0.80000
Cd1826     Cd  0.52084443  0.03310261  0.41794900     1.59700
Cd1827     Cd  0.96717848  0.04468783  0.45396629     1.59600
O1828       O  0.51710386  0.09119977  0.42058792    -0.80000
O1829       O  0.98987478  0.00489759  0.43701572    -1.90500
Cd1830     Cd  0.52156126  0.96815045  0.45182937     1.59900
O1831       O  0.00230400  0.09589974  0.45063788    -0.80000
O1832       O  0.50388986  0.91013151  0.44670178    -0.78600
C1833       C  0.88706211  0.01502426  0.43980885     0.83900
C1834       C  0.97364320  0.00291019  0.38465801     0.83600
O1835       O  0.95237049  0.91969066  0.42868580    -0.77600
C1836       C  0.59525041  0.01158518  0.43870668     0.84400
O1837       O  0.90387657  0.98906943  0.43080441    -0.77700
C1838       C  0.51970325  0.10880988  0.43607450     0.84500
C1839       C  0.49786346  0.00251038  0.48948203     0.84800
O1840       O  0.97790871  0.02919795  0.48180050    -0.80100
O1841       O  0.67237490  0.58438306  0.57075049    -0.77600
C1842       C  0.65103505  0.50113072  0.61475033     0.83400
O1843       O  0.71929731  0.46217497  0.55079167    -0.78700
O1844       O  0.60770722  0.41285634  0.57883308    -0.80200
O1845       O  0.54604223  0.51832229  0.55077555    -0.80000
O1846       O  0.62087213  0.59395719  0.55272547    -0.78600
Zn1847     Zn  0.67152754  0.52896182  0.57626542     1.55700
O1848       O  0.54674120  0.47484120  0.57387851    -0.80000
Cd1849     Cd  0.60317403  0.53594574  0.54759598     1.59700
Cd1850     Cd  0.65755033  0.45938944  0.54544861     1.59600
O1851       O  0.61001563  0.52750833  0.51944640    -0.80000
O1852       O  0.63486026  0.49918167  0.56239851    -1.90500
Cd1853     Cd  0.60388747  0.47095017  0.58145206     1.59900
O1854       O  0.64681332  0.47489049  0.51762002    -0.80000
O1855       O  0.62040379  0.48405773  0.60907961    -0.78600
C1856       C  0.73767119  0.48905293  0.55959597     0.83900
C1857       C  0.65109868  0.60646855  0.56122247     0.83600
O1858       O  0.67315697  0.51885614  0.60358885    -0.77600
C1859       C  0.52948349  0.49248817  0.56070241     0.84400
O1860       O  0.72086082  0.51500414  0.56860517    -0.77700
C1861       C  0.62685466  0.50157802  0.50994155     0.84500
C1862       C  0.60505868  0.39525575  0.56334651     0.84800
O1863       O  0.62242147  0.40817566  0.54877521    -0.80100
O1864       O  0.92237620  0.58438102  0.57075006    -0.77600
C1865       C  0.90103364  0.50112749  0.61474959     0.83400
O1866       O  0.96929906  0.46217033  0.55079395    -0.78700
O1867       O  0.85770191  0.41285899  0.57883204    -0.80200
O1868       O  0.79604349  0.51832278  0.55077165    -0.80000
O1869       O  0.87087925  0.59395431  0.55272091    -0.78600
Zn1870     Zn  0.92152729  0.52895986  0.57626503     1.55700
O1871       O  0.79673986  0.47484639  0.57387670    -0.80000
Cd1872     Cd  0.85317752  0.53594336  0.54759276     1.59700
Cd1873     Cd  0.90755345  0.45938703  0.54544845     1.59600
O1874       O  0.86002379  0.52750091  0.51944384    -0.80000
O1875       O  0.88486113  0.49918068  0.56239710    -1.90500
Cd1876     Cd  0.85388542  0.47095265  0.58145065     1.59900
O1877       O  0.89682216  0.47488345  0.51761852    -0.80000
O1878       O  0.87040105  0.48405744  0.60907855    -0.78600
C1879       C  0.98767188  0.48904892  0.55959821     0.83900
C1880       C  0.90110348  0.60646583  0.56121984     0.83600
O1881       O  0.92315650  0.51885238  0.60358835    -0.77600
C1882       C  0.77948316  0.49249138  0.56069967     0.84400
O1883       O  0.97086064  0.51500154  0.56860600    -0.77700
C1884       C  0.87686382  0.50157052  0.50993948     0.84500
C1885       C  0.85505790  0.39525658  0.56334583     0.84800
O1886       O  0.87242399  0.40817473  0.54877509    -0.80100
O1887       O  0.63985169  0.58429324  0.67866887    -0.77600
C1888       C  0.66120097  0.50111118  0.63464948     0.83400
O1889       O  0.59291218  0.46208423  0.69859762    -0.78700
O1890       O  0.70457579  0.41277929  0.67057387    -0.80200
O1891       O  0.76616595  0.51820861  0.69864741    -0.80000
O1892       O  0.69134956  0.59385725  0.69669828    -0.78600
Zn1893     Zn  0.64069648  0.52888528  0.67314122     1.55700
O1894       O  0.76547838  0.47481288  0.67550589    -0.80000
Cd1895     Cd  0.70903262  0.53583908  0.70182484     1.59700
Cd1896     Cd  0.65465236  0.45929183  0.70394512     1.59600
O1897       O  0.70214504  0.52738834  0.72997343    -0.80000
O1898       O  0.67735737  0.49909261  0.68700512    -1.90500
Cd1899     Cd  0.70833423  0.47088008  0.66794482     1.59900
O1900       O  0.66534351  0.47477102  0.73177854    -0.80000
O1901       O  0.69181417  0.48400142  0.64031717    -0.78600
C1902       C  0.57454204  0.48896780  0.68979630     0.83900
C1903       C  0.66112624  0.60637290  0.68820011     0.83600
O1904       O  0.63908892  0.51883505  0.64581539    -0.77600
C1905       C  0.78273092  0.49241683  0.68869696     0.84400
O1906       O  0.59135529  0.51492175  0.68078997    -0.77700
C1907       C  0.68528530  0.50145540  0.73946868     0.84500
C1908       C  0.70719129  0.39517716  0.68606210     0.84800
O1909       O  0.68979007  0.40808752  0.70062458    -0.80100
O1910       O  0.88985802  0.58429331  0.67866633    -0.77600
C1911       C  0.91119959  0.50110614  0.63464879     0.83400
O1912       O  0.84291037  0.46209114  0.69859943    -0.78700
O1913       O  0.95456717  0.41277326  0.67057573    -0.80200
O1914       O  0.51616722  0.51820265  0.69864490    -0.80000
O1915       O  0.94135321  0.59385589  0.69669761    -0.78600
Zn1916     Zn  0.89069873  0.52888495  0.67314022     1.55700
O1917       O  0.51547767  0.47480208  0.67550541    -0.80000
Cd1918     Cd  0.95903541  0.53583627  0.70182376     1.59700
Cd1919     Cd  0.90465043  0.45929304  0.70394576     1.59600
O1920       O  0.95215120  0.52738584  0.72997293    -0.80000
O1921       O  0.92735796  0.49909054  0.68700454    -1.90500
Cd1922     Cd  0.95833212  0.47087300  0.66794461     1.59900
O1923       O  0.91534417  0.47477263  0.73177881    -0.80000
O1924       O  0.94181054  0.48399234  0.64031659    -0.78600
C1925       C  0.82454166  0.48897511  0.68979772     0.83900
C1926       C  0.91113161  0.60637255  0.68819826     0.83600
O1927       O  0.88909019  0.51883359  0.64581458    -0.77600
C1928       C  0.53273116  0.49240835  0.68869556     0.84400
O1929       O  0.84135619  0.51492632  0.68079001    -0.77700
C1930       C  0.93528924  0.50145495  0.73946861     0.84500
C1931       C  0.95718466  0.39517357  0.68606447     0.84800
O1932       O  0.93978499  0.40808618  0.70062692    -0.80100
O1933       O  0.54734052  0.16960882  0.67868746    -0.77600
C1934       C  0.52601676  0.25285355  0.63466747     0.83400
O1935       O  0.59423826  0.29182293  0.69863488    -0.78700
O1936       O  0.98267323  0.34112920  0.67058488    -0.80200
O1937       O  0.92098434  0.23568000  0.69864298    -0.80000
O1938       O  0.99581616  0.16003671  0.69669956    -0.78600
Zn1939     Zn  0.54647835  0.22502517  0.67315771     1.55700
O1940       O  0.92168905  0.27915460  0.67553717    -0.80000
Cd1941     Cd  0.97811109  0.21804593  0.70182224     1.59700
Cd1942     Cd  0.53248607  0.29459478  0.70397886     1.59600
O1943       O  0.98492815  0.22646998  0.72997206    -0.80000
O1944       O  0.50980694  0.25480748  0.68702202    -1.90500
Cd1945     Cd  0.97884367  0.28303702  0.66796322     1.59900
O1946       O  0.52172665  0.27908493  0.73180835    -0.80000
O1947       O  0.99538871  0.26994096  0.64033410    -0.78600
C1948       C  0.61261528  0.26496043  0.68982028     0.83900
C1949       C  0.52605603  0.14752588  0.68821322     0.83600
O1950       O  0.54811619  0.23511097  0.64583241    -0.77600
C1951       C  0.90442875  0.26151482  0.68871586     0.84400
O1952       O  0.59580654  0.23901204  0.68080896    -0.77700
C1953       C  0.00175874  0.25239574  0.73948187     0.84500
C1954       C  0.98000162  0.35872318  0.68607236     0.84800
O1955       O  0.49735105  0.34580255  0.70064696    -0.80100
O1956       O  0.79733357  0.16961177  0.67868414    -0.77600
C1957       C  0.77601641  0.25285496  0.63466562     0.83400
O1958       O  0.84423942  0.29181959  0.69863452    -0.78700
O1959       O  0.73268165  0.34113361  0.67058183    -0.80200
O1960       O  0.67098376  0.23568712  0.69864110    -0.80000
O1961       O  0.74581051  0.16004142  0.69669736    -0.78600
Zn1962     Zn  0.79647765  0.22502825  0.67315626     1.55700
O1963       O  0.67168897  0.27916247  0.67553561    -0.80000
Cd1964     Cd  0.72810919  0.21805104  0.70182058     1.59700
Cd1965     Cd  0.78248728  0.29459568  0.70397735     1.59600
O1966       O  0.73492758  0.22647360  0.72997065    -0.80000
O1967       O  0.75980642  0.25481063  0.68702018    -1.90500
Cd1968     Cd  0.72884427  0.28304103  0.66796109     1.59900
O1969       O  0.77172789  0.27908710  0.73180702    -0.80000
O1970       O  0.74538571  0.26993825  0.64033190    -0.78600
C1971       C  0.86261571  0.26495416  0.68982170     0.83900
C1972       C  0.77604900  0.14752966  0.68821025     0.83600
O1973       O  0.79811919  0.23511799  0.64583114    -0.77600
C1974       C  0.65442843  0.26152234  0.68871418     0.84400
O1975       O  0.84580634  0.23900635  0.68081031    -0.77700
C1976       C  0.75175958  0.25239840  0.73948057     0.84500
C1977       C  0.73000799  0.35872661  0.68606951     0.84800
O1978       O  0.74735461  0.34580434  0.70064461    -0.80100
O1979       O  0.51491243  0.16968219  0.57074611    -0.77600
C1980       C  0.53620663  0.25287309  0.61476939     0.83400
O1981       O  0.96797839  0.29188977  0.55081353    -0.78700
O1982       O  0.57964101  0.34119507  0.57884049    -0.80200
O1983       O  0.64123231  0.23578293  0.55077182    -0.80000
O1984       O  0.56643683  0.16011405  0.55273429    -0.78600
Zn1985     Zn  0.51575397  0.22508828  0.57627430     1.55700
O1986       O  0.64054464  0.27916150  0.57392062    -0.80000
Cd1987     Cd  0.58410708  0.21813426  0.54760110     1.59700
Cd1988     Cd  0.52972288  0.29467716  0.54546884     1.59600
O1989       O  0.57723120  0.22656824  0.51945232    -0.80000
O1990       O  0.55242221  0.25488311  0.56241493    -1.90500
Cd1991     Cd  0.58338967  0.28309481  0.58147870     1.59900
O1992       O  0.54043298  0.27918640  0.51763808    -0.80000
O1993       O  0.56682097  0.26999202  0.60910675    -0.78600
C1994       C  0.94960702  0.26501078  0.55961821     0.83900
C1995       C  0.53620359  0.14759942  0.56122524     0.83600
O1996       O  0.51411670  0.23513358  0.60359968    -0.77600
C1997       C  0.65779631  0.26157139  0.56072375     0.84400
O1998       O  0.96641985  0.23905737  0.56862418    -0.77700
C1999       C  0.56037975  0.25249923  0.50995299     0.84500
C2000       C  0.58225297  0.35879825  0.56335227     0.84800
O2001       O  0.56485503  0.34588560  0.54878942    -0.80100
O2002       O  0.76491556  0.16968083  0.57074431    -0.77600
C2003       C  0.78620604  0.25287305  0.61476738     0.83400
O2004       O  0.71797843  0.29189280  0.55081402    -0.78700
O2005       O  0.82964738  0.34119235  0.57883903    -0.80200
O2006       O  0.89123198  0.23578398  0.55076784    -0.80000
O2007       O  0.81643315  0.16011467  0.55272759    -0.78600
Zn2008     Zn  0.76575536  0.22508743  0.57627193     1.55700
O2009       O  0.89054352  0.27915476  0.57392010    -0.80000
Cd2010     Cd  0.83410595  0.21813570  0.54759615     1.59700
Cd2011     Cd  0.77972250  0.29467938  0.54546675     1.59600
O2012       O  0.82723097  0.22657426  0.51944769    -0.80000
O2013       O  0.80242205  0.25488305  0.56241172    -1.90500
Cd2014     Cd  0.83338939  0.28309171  0.58147661     1.59900
O2015       O  0.79043303  0.27919284  0.51763481    -0.80000
O2016       O  0.81682119  0.26999007  0.60910465    -0.78600
C2017       C  0.69960765  0.26501260  0.55961822     0.83900
C2018       C  0.78620312  0.14759899  0.56122099     0.83600
O2019       O  0.76411567  0.23513420  0.60359760    -0.77600
C2020       C  0.90779569  0.26156880  0.56072218     0.84400
O2021       O  0.71642110  0.23905642  0.56862208    -0.77700
C2022       C  0.81038028  0.25250667  0.50994899     0.84500
C2023       C  0.83225441  0.35879819  0.56335136     0.84800
O2024       O  0.81485367  0.34588758  0.54878889    -0.80100
O2025       O  0.54738193  0.08438021  0.57076369    -0.77600
C2026       C  0.52602441  0.00113936  0.61477676     0.83400
O2027       O  0.59430141  0.96219164  0.55080386    -0.78700
O2028       O  0.98270095  0.91285705  0.57885079    -0.80200
O2029       O  0.92104701  0.01832075  0.55079315    -0.80000
O2030       O  0.99588954  0.09394680  0.55272996    -0.78600
Zn2031     Zn  0.54652658  0.02896383  0.57628968     1.55700
O2032       O  0.92174664  0.97485671  0.57390413    -0.80000
Cd2033     Cd  0.97818039  0.03593880  0.54760772     1.59700
Cd2034     Cd  0.53255386  0.95939369  0.54546325     1.59600
O2035       O  0.98501272  0.02750198  0.51945630    -0.80000
O2036       O  0.50986514  0.99918166  0.56241690    -1.90500
Cd2037     Cd  0.97889290  0.97095147  0.58147316     1.59900
O2038       O  0.52181274  0.97488750  0.51763139    -0.80000
O2039       O  0.99540468  0.98405011  0.60910326    -0.78600
C2040       C  0.61267483  0.98905499  0.55961903     0.83900
C2041       C  0.52611367  0.10645992  0.56122816     0.83600
O2042       O  0.54813933  0.01887746  0.60361660    -0.77600
C2043       C  0.90448772  0.99249694  0.56072627     0.84400
O2044       O  0.59586413  0.01499247  0.56863783    -0.77700
C2045       C  0.00185262  0.00157277  0.50995141     0.84500
C2046       C  0.98005525  0.89525954  0.56336325     0.84800
O2047       O  0.49742565  0.90817859  0.54879361    -0.80100
O2048       O  0.79737832  0.08438139  0.57076297    -0.77600
C2049       C  0.77601621  0.00114368  0.61477610     0.83400
O2050       O  0.84430510  0.96218949  0.55081043    -0.78700
O2051       O  0.73270535  0.91285746  0.57885328    -0.80200
O2052       O  0.67104826  0.01831682  0.55078811    -0.80000
O2053       O  0.74589275  0.09394373  0.55272437    -0.78600
Zn2054     Zn  0.79652315  0.02896536  0.57628968     1.55700
O2055       O  0.67174466  0.97485314  0.57389926    -0.80000
Cd2056     Cd  0.72818346  0.03593398  0.54760504     1.59700
Cd2057     Cd  0.78255985  0.95939000  0.54546554     1.59600
O2058       O  0.73502254  0.02749093  0.51945502    -0.80000
O2059       O  0.75986569  0.99917972  0.56241662    -1.90500
Cd2060     Cd  0.72888979  0.97095177  0.58147228     1.59900
O2061       O  0.77182615  0.97487871  0.51763169    -0.80000
O2062       O  0.74539615  0.98405505  0.60910259    -0.78600
C2063       C  0.86267585  0.98905636  0.55962430     0.83900
C2064       C  0.77611364  0.10645906  0.56122451     0.83600
O2065       O  0.79813223  0.01888031  0.60361602    -0.77600
C2066       C  0.65448728  0.99249322  0.56072078     0.84400
O2067       O  0.84586276  0.01499620  0.56864042    -0.77700
C2068       C  0.75186535  0.00156270  0.50995085     0.84500
C2069       C  0.73006029  0.89525849  0.56336618     0.84800
O2070       O  0.74743186  0.90817571  0.54879649    -0.80100
O2071       O  0.51486609  0.08430364  0.67869081    -0.77600
C2072       C  0.53618902  0.00111834  0.63467685     0.83400
O2073       O  0.96790963  0.96208926  0.69862185    -0.78700
O2074       O  0.57957693  0.91279063  0.67059811    -0.80200
O2075       O  0.64116612  0.01820955  0.69867635    -0.80000
O2076       O  0.56636596  0.09386840  0.69671857    -0.78600
Zn2077     Zn  0.51569585  0.02889334  0.67317041     1.55700
O2078       O  0.64047946  0.97481955  0.67553250    -0.80000
Cd2079     Cd  0.58403538  0.03584567  0.70185108     1.59700
Cd2080     Cd  0.52965021  0.95929502  0.70396963     1.59600
O2081       O  0.57714020  0.02738999  0.72999895    -0.80000
O2082       O  0.55235829  0.99909952  0.68703211    -1.90500
Cd2083     Cd  0.58333425  0.97089134  0.66797077     1.59900
O2084       O  0.54033793  0.97477199  0.73180265    -0.80000
O2085       O  0.56680781  0.98401666  0.64034365    -0.78600
C2086       C  0.94954122  0.98898399  0.68982762     0.83900
C2087       C  0.53614578  0.10638550  0.68821799     0.83600
O2088       O  0.51407307  0.01883437  0.64584413    -0.77600
C2089       C  0.65773097  0.99241892  0.68872541     0.84400
O2090       O  0.96635623  0.01494454  0.68082672    -0.77700
C2091       C  0.56027892  0.00145614  0.73949325     0.84500
C2092       C  0.58218373  0.89517941  0.68608422     0.84800
O2093       O  0.56478362  0.90808697  0.70064770    -0.80100
O2094       O  0.76485674  0.08430644  0.67868997    -0.77600
C2095       C  0.78618154  0.00112292  0.63467591     0.83400
O2096       O  0.71791232  0.96208530  0.69862034    -0.78700
O2097       O  0.82958632  0.91279756  0.67059590    -0.80200
O2098       O  0.89116453  0.01821588  0.69867599    -0.80000
O2099       O  0.81636114  0.09387369  0.69671447    -0.78600
Zn2100     Zn  0.76569062  0.02889621  0.67316923     1.55700
O2101       O  0.89048041  0.97483070  0.67553023    -0.80000
Cd2102     Cd  0.83403259  0.03585199  0.70184790     1.59700
Cd2103     Cd  0.77965230  0.95929705  0.70396695     1.59600
O2104       O  0.82713736  0.02739723  0.72999533    -0.80000
O2105       O  0.80235665  0.99910398  0.68702972    -1.90500
Cd2106     Cd  0.83333481  0.97089922  0.66796853     1.59900
O2107       O  0.79034138  0.97477474  0.73179937    -0.80000
O2108       O  0.81680139  0.98402222  0.64034219    -0.78600
C2109       C  0.69954136  0.98897889  0.68982678     0.83900
C2110       C  0.78613851  0.10638943  0.68821542     0.83600
O2111       O  0.76406607  0.01883905  0.64584331    -0.77600
C2112       C  0.90773058  0.99242665  0.68872467     0.84400
O2113       O  0.71635337  0.01494157  0.68082600    -0.77700
C2114       C  0.81028016  0.00146087  0.73948962     0.84500
C2115       C  0.83218777  0.89518360  0.68608148     0.84800
O2116       O  0.81478504  0.90808961  0.70064454    -0.80100
O2117       O  0.63988533  0.66969239  0.57074014    -0.77600
C2118       C  0.66117114  0.75288148  0.61476846     0.83400
O2119       O  0.59296924  0.79194661  0.55083140    -0.78700
O2120       O  0.70457499  0.84122017  0.57885706    -0.80200
O2121       O  0.76622105  0.73580227  0.55078851    -0.80000
O2122       O  0.69143014  0.66012671  0.55274206    -0.78600
Zn2123     Zn  0.64072866  0.72510148  0.57627075     1.55700
O2124       O  0.76552290  0.77921854  0.57392062    -0.80000
Cd2125     Cd  0.70909902  0.71815042  0.54761289     1.59700
Cd2126     Cd  0.65471470  0.79470214  0.54547771     1.59600
O2127       O  0.70223002  0.72659259  0.51946485    -0.80000
O2128       O  0.67740586  0.75489961  0.56242092    -1.90500
Cd2129     Cd  0.70836416  0.78311911  0.58148519     1.59900
O2130       O  0.66542006  0.77920343  0.51764665    -0.80000
O2131       O  0.69179339  0.76999211  0.60910955    -0.78600
C2132       C  0.57459232  0.76505415  0.55962399     0.83900
C2133       C  0.66118728  0.64760996  0.56122444     0.83600
O2134       O  0.63907832  0.73515161  0.60359612    -0.77600
C2135       C  0.78277970  0.76161046  0.56073069     0.84400
O2136       O  0.59140090  0.73907724  0.56861568    -0.77700
C2137       C  0.68537528  0.75251881  0.50996375     0.90900
C2138       C  0.70723726  0.85881111  0.56336752     0.84800
O2139       O  0.68986935  0.84589379  0.54879782    -0.80100
O2140       O  0.88988926  0.66968885  0.57073775    -0.77600
C2141       C  0.91117341  0.75287981  0.61476654     0.83400
O2142       O  0.84296802  0.79194070  0.55083087    -0.78700
O2143       O  0.95457170  0.84122012  0.57885393    -0.80200
O2144       O  0.51622294  0.73580537  0.55078677    -0.80000
O2145       O  0.94143521  0.66012457  0.55274029    -0.78600
Zn2146     Zn  0.89073091  0.72509704  0.57626924     1.55700
O2147       O  0.51552143  0.77922209  0.57391856    -0.80000
Cd2148     Cd  0.95910167  0.71814907  0.54761169     1.59700
Cd2149     Cd  0.90471294  0.79469891  0.54547597     1.59600
O2150       O  0.95223188  0.72658916  0.51946422    -0.80000
O2151       O  0.92740580  0.75489718  0.56241896    -1.90500
Cd2152     Cd  0.95836272  0.78311944  0.58148250     1.59900
O2153       O  0.91541964  0.77919856  0.51764563    -0.80000
O2154       O  0.94179334  0.76999363  0.60910705    -0.78600
C2155       C  0.82459209  0.76504890  0.55962447     0.83900
C2156       C  0.91119196  0.64760716  0.56122210     0.83600
O2157       O  0.88908241  0.73514620  0.60359474    -0.77600
C2158       C  0.53277985  0.76161475  0.56072897     0.84400
O2159       O  0.84140161  0.73907203  0.56861584    -0.77700
C2160       C  0.93537625  0.75251457  0.50996312     0.84500
C2161       C  0.95723316  0.85881119  0.56336443     0.84800
O2162       O  0.93986528  0.84589301  0.54879488    -0.80100
O2163       O  0.67230478  0.66959753  0.67867205    -0.77600
C2164       C  0.65098031  0.75285549  0.63466616     0.83400
O2165       O  0.71922308  0.79177491  0.69864252    -0.78700
O2166       O  0.60760638  0.84111457  0.67059872    -0.80200
O2167       O  0.54596696  0.73565676  0.69865346    -0.80000
O2168       O  0.62080264  0.66001856  0.69669812    -0.78600
Zn2169     Zn  0.67144749  0.72501347  0.67315172     1.55700
O2170       O  0.54666297  0.77910870  0.67553741    -0.80000
Cd2171     Cd  0.60309776  0.71802637  0.70182793     1.59700
Cd2172     Cd  0.65747246  0.79457336  0.70398129     1.59600
O2173       O  0.60992695  0.72644824  0.72997836    -0.80000
O2174       O  0.63478359  0.75479222  0.68702388    -1.90500
Cd2175     Cd  0.60381324  0.78302145  0.66796759     1.59900
O2176       O  0.64671155  0.77907300  0.73181018    -0.80000
O2177       O  0.62035655  0.76994619  0.64033552    -0.78600
C2178       C  0.73759457  0.76491739  0.68982187     0.83900
C2179       C  0.65103170  0.64751131  0.68820148     0.83600
O2180       O  0.67307825  0.73510572  0.64582862    -0.77600
C2181       C  0.52940676  0.76147854  0.68872015     0.84400
O2182       O  0.72078138  0.73898460  0.68080188    -0.77700
C2183       C  0.62675242  0.75238154  0.73948599     0.84500
C2184       C  0.60498093  0.85871696  0.68608578     0.84800
O2185       O  0.62235691  0.84579620  0.70065329    -0.80100
O2186       O  0.92230981  0.66959868  0.67867102    -0.77600
C2187       C  0.90098267  0.75285545  0.63466427     0.83400
O2188       O  0.96922095  0.79177456  0.69864611    -0.78700
O2189       O  0.85760494  0.84111588  0.67059620    -0.80200
O2190       O  0.79596683  0.73565313  0.69864847    -0.80000
O2191       O  0.87080544  0.66001719  0.69669522    -0.78600
Zn2192     Zn  0.92145004  0.72501563  0.67315060     1.55700
O2193       O  0.79666268  0.77910864  0.67553389    -0.80000
Cd2194     Cd  0.85309720  0.71802431  0.70182493     1.59700
Cd2195     Cd  0.90746852  0.79457332  0.70398061     1.59600
O2196       O  0.85992137  0.72644441  0.72997640    -0.80000
O2197       O  0.88478279  0.75479265  0.68702181    -1.90500
Cd2198     Cd  0.85381330  0.78302224  0.66796486     1.59900
O2199       O  0.89670122  0.77907223  0.73180886    -0.80000
O2200       O  0.87035811  0.76994553  0.64033311    -0.78600
C2201       C  0.98759427  0.76491911  0.68982489     0.83900
C2202       C  0.90103638  0.64751121  0.68819967     0.83600
O2203       O  0.92308133  0.73510770  0.64582723    -0.77600
C2204       C  0.77940666  0.76147627  0.68871599     0.84400
O2205       O  0.97078264  0.73898875  0.68080256    -0.77700
C2206       C  0.87674404  0.75237907  0.73948445     0.84500
C2207       C  0.85498164  0.85871925  0.68608314     0.84800
O2208       O  0.87235656  0.84579784  0.70065082    -0.80100
O2209       O  0.70138370  0.48498692  0.89581769    -0.77600
C2210       C  0.72341894  0.39740790  0.93820442     0.83400
O2211       O  0.65522206  0.54168208  0.94861531    -0.78700
O2212       O  0.76447285  0.47637607  0.97998202    -0.80200
O2213       O  0.82778523  0.52897996  0.92552398    -0.80000
O2214       O  0.75411709  0.51981379  0.89032843    -0.78600
Zn2215     Zn  0.70300344  0.47490077  0.92314298     1.55700
O2216       O  0.82847402  0.48555326  0.94865179    -0.80000
Cd2217     Cd  0.77064014  0.53290576  0.91795851     1.59700
Cd2218     Cd  0.71696446  0.54447742  0.95396303     1.59600
O2219       O  0.76686281  0.59100174  0.92058679    -0.80000
O2220       O  0.73966242  0.50468476  0.93701540    -1.90500
Cd2221     Cd  0.77133812  0.46793348  0.95183205     1.59900
O2222       O  0.75210011  0.59568851  0.95063987    -0.80000
O2223       O  0.75363506  0.40992312  0.94670857    -0.78600
C2224       C  0.63685118  0.51480626  0.93980818     0.83900
C2225       C  0.72349665  0.50272336  0.88465640     0.83600
O2226       O  0.70215711  0.41948579  0.92866486    -0.77600
C2227       C  0.84503887  0.51135839  0.93870935     0.84400
O2228       O  0.65366382  0.48885989  0.93079632    -0.77700
C2229       C  0.76948772  0.60860362  0.93607414     0.84500
C2230       C  0.74761755  0.50230254  0.98948261     0.84800
O2231       O  0.72766722  0.52898780  0.98179737    -0.80100
O2232       O  0.95138155  0.48498263  0.89581877    -0.77600
C2233       C  0.97342494  0.39740653  0.93820434     0.83400
O2234       O  0.90522168  0.54167195  0.94861879    -0.78700
O2235       O  0.51448233  0.47637075  0.97998199    -0.80200
O2236       O  0.57778318  0.52898919  0.92552314    -0.80000
O2237       O  0.50411504  0.51980875  0.89032854    -0.78600
Zn2238     Zn  0.95300335  0.47489726  0.92314407     1.55700
O2239       O  0.57847771  0.48555691  0.94864847    -0.80000
Cd2240     Cd  0.52063657  0.53290503  0.91795823     1.59700
Cd2241     Cd  0.96696440  0.54446912  0.95396473     1.59600
O2242       O  0.51684463  0.59099938  0.92058596    -0.80000
O2243       O  0.98966315  0.50468063  0.93701570    -1.90500
Cd2244     Cd  0.52134412  0.46793180  0.95183098     1.59900
O2245       O  0.00209738  0.59568047  0.95064091    -0.80000
O2246       O  0.50364361  0.40992154  0.94670648    -0.78600
C2247       C  0.88685057  0.51479728  0.93981101     0.83900
C2248       C  0.97349442  0.50271787  0.88465702     0.83600
O2249       O  0.95215980  0.41948412  0.92866652    -0.77600
C2250       C  0.59503954  0.51136582  0.93870711     0.84400
O2251       O  0.90366313  0.48885272  0.93079795    -0.77700
C2252       C  0.51947763  0.60859815  0.93607383     0.84500
C2253       C  0.49762506  0.50229513  0.98948311     0.84800
O2254       O  0.97767162  0.52897868  0.98179832    -0.80100
O2255       O  0.73544831  0.48502014  0.85359047    -0.77600
C2256       C  0.71337275  0.39745289  0.81121656     0.83400
O2257       O  0.78160251  0.54174426  0.80081098    -0.78700
O2258       O  0.67237350  0.47644906  0.76943364    -0.80200
O2259       O  0.60903619  0.52902440  0.82389589    -0.80000
O2260       O  0.68270551  0.51982697  0.85908945    -0.78600
Zn2261     Zn  0.73381966  0.47494528  0.82626572     1.55700
O2262       O  0.60834974  0.48561887  0.80075873    -0.80000
Cd2263     Cd  0.66618027  0.53294873  0.83146203     1.59700
Cd2264     Cd  0.71986170  0.54454395  0.79546388     1.59600
O2265       O  0.66994576  0.59104917  0.82883916    -0.80000
O2266       O  0.69715808  0.50473849  0.81240193    -1.90500
Cd2267     Cd  0.66548376  0.46799228  0.79758165     1.59900
O2268       O  0.68472507  0.59575120  0.79878841    -0.80000
O2269       O  0.68316111  0.40997243  0.80271009    -0.78600
C2270       C  0.79997283  0.51484815  0.80960347     0.83900
C2271       C  0.71333004  0.50273611  0.86475670     0.83600
O2272       O  0.73464383  0.41953159  0.82075025    -0.77600
C2273       C  0.59178414  0.51141514  0.81070620     0.84400
O2274       O  0.78316013  0.48888684  0.81860521    -0.77700
C2275       C  0.66732872  0.60865831  0.81335312     0.84500
C2276       C  0.68923078  0.50238465  0.75993898     0.84800
O2277       O  0.70917048  0.52907005  0.76762962    -0.80100
O2278       O  0.98544966  0.48501995  0.85359074    -0.77600
C2279       C  0.96337555  0.39745323  0.81121613     0.83400
O2280       O  0.53160097  0.54174862  0.80081274    -0.78700
O2281       O  0.92238034  0.47644614  0.76943333    -0.80200
O2282       O  0.85903425  0.52901385  0.82389646    -0.80000
O2283       O  0.93269935  0.51981478  0.85909064    -0.78600
Zn2284     Zn  0.98382181  0.47494550  0.82626598     1.55700
O2285       O  0.85835094  0.48561553  0.80075621    -0.80000
Cd2286     Cd  0.91617677  0.53294110  0.83146353     1.59700
Cd2287     Cd  0.96986001  0.54454459  0.79546554     1.59600
O2288       O  0.91993537  0.59104318  0.82884301    -0.80000
O2289       O  0.94715811  0.50473681  0.81240265    -1.90500
Cd2290     Cd  0.91548624  0.46799064  0.79758110     1.59900
O2291       O  0.93472424  0.59575131  0.79879326    -0.80000
O2292       O  0.93316305  0.40997229  0.80271035    -0.78600
C2293       C  0.54997286  0.51485353  0.80960514     0.83900
C2294       C  0.96332741  0.50272966  0.86475743     0.83600
O2295       O  0.98464760  0.41953187  0.82074942    -0.77600
C2296       C  0.84178391  0.51140853  0.81070509     0.84400
O2297       O  0.53316158  0.48889052  0.81860630    -0.77700
C2298       C  0.91732553  0.60865662  0.81335777     0.84500
C2299       C  0.93923458  0.50238431  0.75993906     0.84800
O2300       O  0.95916988  0.52907241  0.76763031    -0.80100
O2301       O  0.61040879  0.76870840  0.89583312    -0.77600
C2302       C  0.58834204  0.85625311  0.93821036     0.83400
O2303       O  0.65654885  0.71195098  0.94862092    -0.78700
O2304       O  0.54727162  0.77728028  0.97997635    -0.80200
O2305       O  0.98398797  0.72466090  0.92552408    -0.80000
O2306       O  0.55769503  0.73386156  0.89032887    -0.78600
Zn2307     Zn  0.60877928  0.77876013  0.92315821     1.55700
O2308       O  0.98329485  0.76808798  0.94865118    -0.80000
Cd2309     Cd  0.54114165  0.72075051  0.91795713     1.59700
Cd2310     Cd  0.59480179  0.70917277  0.95396669     1.59600
O2311       O  0.54492589  0.66265285  0.92058658    -0.80000
O2312       O  0.57210968  0.74896790  0.93701834    -1.90500
Cd2313     Cd  0.54042225  0.78572165  0.95182736     1.59900
O2314       O  0.55966717  0.65796643  0.95064197    -0.80000
O2315       O  0.55810641  0.84373836  0.94669917    -0.78600
C2316       C  0.67492216  0.73882305  0.93981193     0.83900
C2317       C  0.58831281  0.75097210  0.88466487     0.83600
O2318       O  0.60963276  0.83417057  0.92868853    -0.77600
C2319       C  0.96673310  0.74227802  0.93871144     0.84400
O2320       O  0.65811068  0.76477621  0.93080519    -0.77700
C2321       C  0.54228840  0.64505237  0.93607422     0.84500
C2322       C  0.56411404  0.75134932  0.98947898     0.84800
O2323       O  0.58407258  0.72466474  0.98179770    -0.80100
O2324       O  0.86041624  0.76871939  0.89583570    -0.77600
C2325       C  0.83832315  0.85626432  0.93820799     0.83400
O2326       O  0.90654608  0.71196675  0.94862356    -0.78700
O2327       O  0.79725865  0.77729421  0.97997564    -0.80200
O2328       O  0.73399428  0.72465028  0.92552155    -0.80000
O2329       O  0.80770618  0.73386803  0.89032972    -0.78600
Zn2330     Zn  0.85877841  0.77877244  0.92316097     1.55700
O2331       O  0.73328907  0.76808027  0.94864739    -0.80000
Cd2332     Cd  0.79115051  0.72075194  0.91795706     1.59700
Cd2333     Cd  0.84479921  0.70918698  0.95396877     1.59600
O2334       O  0.79494800  0.66265437  0.92058693    -0.80000
O2335       O  0.82210777  0.74897832  0.93701913    -1.90500
Cd2336     Cd  0.79041131  0.78572901  0.95182565     1.59900
O2337       O  0.80966679  0.65797820  0.95064489    -0.80000
O2338       O  0.80808571  0.84374844  0.94669501    -0.78600
C2339       C  0.92492092  0.73884119  0.93981698     0.83900
C2340       C  0.83832303  0.75098164  0.88466664     0.83600
O2341       O  0.85961992  0.83418202  0.92868936    -0.77600
C2342       C  0.71673399  0.74226562  0.93870784     0.84400
O2343       O  0.90811100  0.76479736  0.93081147    -0.77700
C2344       C  0.79229877  0.64505845  0.93607542     0.84500
C2345       C  0.81410390  0.75136635  0.98947881     0.84800
O2346       O  0.83406644  0.72468341  0.98179826    -0.80100
O2347       O  0.57640262  0.76873311  0.85360255    -0.77600
C2348       C  0.59847073  0.85632086  0.81122848     0.83400
O2349       O  0.53027772  0.71203736  0.80080120    -0.78700
O2350       O  0.63957944  0.77736889  0.76946140    -0.80200
O2351       O  0.70283086  0.72470245  0.82390097    -0.80000
O2352       O  0.62912338  0.73389191  0.85909947    -0.78600
Zn2353     Zn  0.57804586  0.77882185  0.82627899     1.55700
O2354       O  0.70353412  0.76817002  0.80079167    -0.80000
Cd2355     Cd  0.64567636  0.72080149  0.83147031     1.59700
Cd2356     Cd  0.59202726  0.70925240  0.79545814     1.59600
O2357       O  0.64186849  0.66270692  0.82884072    -0.80000
O2358       O  0.61471439  0.74903715  0.81241343    -1.90500
Cd2359     Cd  0.64640579  0.78579983  0.79761127     1.59900
O2360       O  0.62715521  0.65803833  0.79878223    -0.80000
O2361       O  0.62870256  0.84381059  0.80273522    -0.78600
C2362       C  0.51190393  0.73890706  0.80961201     0.83900
C2363       C  0.59849954  0.75098623  0.86476674     0.83600
O2364       O  0.57719384  0.83423715  0.82075716    -0.77600
C2365       C  0.72009098  0.74234090  0.81072187     0.84400
O2366       O  0.52871508  0.76485395  0.81862332    -0.77700
C2367       C  0.64451892  0.64511371  0.81335202     0.84500
C2368       C  0.62274437  0.75144179  0.75995368     0.84800
O2369       O  0.60277724  0.72475595  0.76762926    -0.80100
O2370       O  0.82641062  0.76874078  0.85360423    -0.77600
C2371       C  0.84846389  0.85632180  0.81122413     0.83400
O2372       O  0.78027816  0.71203560  0.80080373    -0.78700
O2373       O  0.88956906  0.77736920  0.76945941    -0.80200
O2374       O  0.95283415  0.72471251  0.82389896    -0.80000
O2375       O  0.87913529  0.73390543  0.85910091    -0.78600
Zn2376     Zn  0.82804635  0.77882419  0.82627995     1.55700
O2377       O  0.95353234  0.76817304  0.80078657    -0.80000
Cd2378     Cd  0.89568233  0.72081048  0.83147123     1.59700
Cd2379     Cd  0.84202749  0.70925182  0.79545983     1.59600
O2380       O  0.89188105  0.66271413  0.82884453    -0.80000
O2381       O  0.86471468  0.74903959  0.81241378    -1.90500
Cd2382     Cd  0.89640199  0.78580128  0.79760879     1.59900
O2383       O  0.87715320  0.65803741  0.79878762    -0.80000
O2384       O  0.87869673  0.84381146  0.80273173    -0.78600
C2385       C  0.76190374  0.73890162  0.80961684     0.83900
C2386       C  0.84851044  0.75099755  0.86476847     0.83600
O2387       O  0.82718789  0.83423879  0.82075383    -0.77600
C2388       C  0.97009140  0.74234687  0.81071777     0.84400
O2389       O  0.77871453  0.76484805  0.81862867    -0.77700
C2390       C  0.89452144  0.64511548  0.81335681     0.84500
C2391       C  0.87273701  0.75143895  0.75995243     0.84800
O2392       O  0.85277538  0.72475027  0.76762915    -0.80100
O2393       O  0.73541537  0.26871538  0.89583415    -0.77600
C2394       C  0.71332701  0.35626901  0.93820694     0.83400
O2395       O  0.78154017  0.21197110  0.94862116    -0.78700
O2396       O  0.67226055  0.27730063  0.97997872    -0.80200
O2397       O  0.60898658  0.22466376  0.92552726    -0.80000
O2398       O  0.68269389  0.23388061  0.89032943    -0.78600
Zn2399     Zn  0.73377124  0.27877548  0.92315970     1.55700
O2400       O  0.60828585  0.26810127  0.94865007    -0.80000
Cd2401     Cd  0.66614053  0.22075970  0.91795789     1.59700
Cd2402     Cd  0.71979170  0.20918828  0.95396797     1.59600
O2403       O  0.66992964  0.16265886  0.92058557    -0.80000
O2404       O  0.69710119  0.24898360  0.93701993    -1.90500
Cd2405     Cd  0.66541208  0.28573912  0.95182882     1.59900
O2406       O  0.68465310  0.15798136  0.95064290    -0.80000
O2407       O  0.68309608  0.34375642  0.94670034    -0.78600
C2408       C  0.79991397  0.23885249  0.93981868     0.83900
C2409       C  0.71331540  0.25098514  0.88466526     0.83600
O2410       O  0.73461174  0.33418527  0.92868307    -0.77600
C2411       C  0.59172806  0.24228493  0.93871235     0.84400
O2412       O  0.78310278  0.26481068  0.93081520    -0.77700
C2413       C  0.66728023  0.14506320  0.93607421     0.84500
C2414       C  0.68910346  0.25136918  0.98948091     0.84800
O2415       O  0.70906059  0.22468404  0.98179889    -0.80100
O2416       O  0.98541953  0.26871967  0.89583404    -0.77600
C2417       C  0.96333292  0.35626829  0.93820716     0.83400
O2418       O  0.53153899  0.21196322  0.94861649    -0.78700
O2419       O  0.92226866  0.27730067  0.97997783    -0.80200
O2420       O  0.85898175  0.22468129  0.92552423    -0.80000
O2421       O  0.93268752  0.23390221  0.89032690    -0.78600
Zn2422     Zn  0.98377580  0.27877634  0.92315966     1.55700
O2423       O  0.85828674  0.26810371  0.94865347    -0.80000
Cd2424     Cd  0.91613455  0.22077469  0.91795408     1.59700
Cd2425     Cd  0.96979081  0.20918799  0.95396370     1.59600
O2426       O  0.91991640  0.16267316  0.92057787    -0.80000
O2427       O  0.94710117  0.24898703  0.93701776    -1.90500
Cd2428     Cd  0.91541467  0.28574087  0.95182847     1.59900
O2429       O  0.93465393  0.15798406  0.95063369    -0.80000
O2430       O  0.93309984  0.34375698  0.94669927    -0.78600
C2431       C  0.54991540  0.23884595  0.93981647     0.83900
C2432       C  0.96331423  0.25099910  0.88466405     0.83600
O2433       O  0.98461892  0.33418418  0.92868430    -0.77600
C2434       C  0.84172640  0.24229358  0.93871306     0.84400
O2435       O  0.53310659  0.26480883  0.93081519    -0.77700
C2436       C  0.91727718  0.14507080  0.93606513     0.84500
C2437       C  0.93910817  0.25136575  0.98947931     0.84800
O2438       O  0.95906076  0.22467833  0.98179629    -0.80100
O2439       O  0.70140250  0.26874409  0.85360182    -0.77600
C2440       C  0.72346024  0.35631250  0.81122005     0.83400
O2441       O  0.65526638  0.21202539  0.80079262    -0.78700
O2442       O  0.76458387  0.27737207  0.76945906    -0.80200
O2443       O  0.82781205  0.22466767  0.82389172    -0.80000
O2444       O  0.75411951  0.23389676  0.85909735    -0.78600
Zn2445     Zn  0.70303076  0.27881512  0.82627513     1.55700
O2446       O  0.82852419  0.26815727  0.80079236    -0.80000
Cd2447     Cd  0.77065619  0.22079058  0.83146660     1.59700
Cd2448     Cd  0.71701729  0.20924923  0.79544946     1.59600
O2449       O  0.76680972  0.16269783  0.82884196    -0.80000
O2450       O  0.73969912  0.24903073  0.81240914    -1.90500
Cd2451     Cd  0.77139952  0.28579155  0.79761009     1.59900
O2452       O  0.75214896  0.15803769  0.79877768    -0.80000
O2453       O  0.75370150  0.34380127  0.80273514    -0.78600
C2454       C  0.63689049  0.23888188  0.80961192     0.83900
C2455       C  0.72350040  0.25099783  0.86476607     0.83600
O2456       O  0.70217065  0.33422942  0.82074293    -0.77600
C2457       C  0.84507644  0.24231640  0.81071701     0.84400
O2458       O  0.65370011  0.26482398  0.81862742    -0.77700
C2459       C  0.76949157  0.14511076  0.81335288     0.84500
C2460       C  0.74774784  0.25145100  0.75994833     0.84800
O2461       O  0.72777568  0.22476423  0.76762103    -0.80100
O2462       O  0.95139957  0.26875142  0.85360011    -0.77600
C2463       C  0.97346190  0.35631310  0.81121940     0.83400
O2464       O  0.90526671  0.21202083  0.80079478    -0.78700
O2465       O  0.51457807  0.27737357  0.76945969    -0.80200
O2466       O  0.57781446  0.22467929  0.82389400    -0.80000
O2467       O  0.50412189  0.23391332  0.85909771    -0.78600
Zn2468     Zn  0.95302798  0.27881715  0.82627344     1.55700
O2469       O  0.57852391  0.26815657  0.80078943    -0.80000
Cd2470     Cd  0.52065886  0.22079968  0.83146836     1.59700
Cd2471     Cd  0.96701785  0.20924702  0.79545184     1.59600
O2472       O  0.51681977  0.16270514  0.82884710    -0.80000
O2473       O  0.98969883  0.24903210  0.81240962    -1.90500
Cd2474     Cd  0.52139877  0.28579207  0.79761008     1.59900
O2475       O  0.00214678  0.15803533  0.79878420    -0.80000
O2476       O  0.50370559  0.34380192  0.80273661    -0.78600
C2477       C  0.88688956  0.23887846  0.80961259     0.83900
C2478       C  0.97350030  0.25101132  0.86476527     0.83600
O2479       O  0.95216788  0.33422989  0.82073977    -0.77600
C2480       C  0.59507743  0.24232098  0.81071668     0.84400
O2481       O  0.90369801  0.26482371  0.81862639    -0.77700
C2482       C  0.51949282  0.14511191  0.81335926     0.84500
C2483       C  0.49774617  0.25144903  0.75994956     0.84800
O2484       O  0.97777812  0.22475953  0.76762277    -0.80100
O2485       O  0.57636701  0.98497542  0.89583297    -0.77600
C2486       C  0.59842776  0.89739450  0.93820938     0.83400
O2487       O  0.53021011  0.04169082  0.94861713    -0.78700
O2488       O  0.63947193  0.97637667  0.97997928    -0.80200
O2489       O  0.70276224  0.02902051  0.92553587    -0.80000
O2490       O  0.62910011  0.01980423  0.89034160    -0.78600
Zn2491     Zn  0.57798793  0.97488975  0.92315774     1.55700
O2492       O  0.70346786  0.98555612  0.94864682    -0.80000
Cd2493     Cd  0.64561603  0.03291971  0.91796773     1.59700
Cd2494     Cd  0.59195251  0.04448149  0.95396572     1.59600
O2495       O  0.64180572  0.09101733  0.92058736    -0.80000
O2496       O  0.61464923  0.00468316  0.93702212    -1.90500
Cd2497     Cd  0.64633664  0.96793021  0.95183104     1.59900
O2498       O  0.62709142  0.09569171  0.95064494    -0.80000
O2499       O  0.62865056  0.90991318  0.94670676    -0.78600
C2500       C  0.51183731  0.01480456  0.93981837     0.83900
C2501       C  0.59848015  0.00271094  0.88467123     0.83600
O2502       O  0.57715010  0.91947312  0.92867866    -0.77600
C2503       C  0.72002414  0.01138043  0.93871268     0.84400
O2504       O  0.52864833  0.98884540  0.93081429    -0.77700
C2505       C  0.64445934  0.10861273  0.93607530     0.84500
C2506       C  0.62261397  0.00230212  0.98947946     0.84800
O2507       O  0.60265948  0.02898569  0.98179581    -0.80100
O2508       O  0.82636661  0.98498721  0.89582713    -0.77600
C2509       C  0.84840875  0.89740551  0.93820673     0.83400
O2510       O  0.78020861  0.04170713  0.94860969    -0.78700
O2511       O  0.88945250  0.97638957  0.97997621    -0.80200
O2512       O  0.95277151  0.02900411  0.92553440    -0.80000
O2513       O  0.87911169  0.01979809  0.89033549    -0.78600
Zn2514     Zn  0.82798371  0.97490096  0.92315139     1.55700
O2515       O  0.95346047  0.98555235  0.94865082    -0.80000
Cd2516     Cd  0.89562740  0.03291398  0.91796197     1.59700
Cd2517     Cd  0.84194971  0.04449387  0.95395761     1.59600
O2518       O  0.89183071  0.09101277  0.92057888    -0.80000
O2519       O  0.86464721  0.00469114  0.93701625    -1.90500
Cd2520     Cd  0.89632399  0.96793710  0.95182925     1.59900
O2521       O  0.87708536  0.09570228  0.95063309    -0.80000
O2522       O  0.87862913  0.90992318  0.94670639    -0.78600
C2523       C  0.76183556  0.01482019  0.93981192     0.83900
C2524       C  0.84848626  0.00271415  0.88466526     0.83600
O2525       O  0.82713706  0.91948392  0.92867269    -0.77600
C2526       C  0.97002529  0.01136889  0.93871536     0.84400
O2527       O  0.77864590  0.98886098  0.93080770    -0.77700
C2528       C  0.89446477  0.10861679  0.93606528     0.84500
C2529       C  0.87260000  0.00232020  0.98947532     0.84800
O2530       O  0.85265232  0.02900704  0.98179019    -0.80100
O2531       O  0.61042654  0.98500298  0.85360662    -0.77600
C2532       C  0.58837785  0.89745998  0.81122764     0.83400
O2533       O  0.65658798  0.04176948  0.80083599    -0.78700
O2534       O  0.54735117  0.97645757  0.76945813    -0.80200
O2535       O  0.98402795  0.02905075  0.82391448    -0.80000
O2536       O  0.55769750  0.01983276  0.85910576    -0.78600
Zn2537     Zn  0.60881161  0.97494880  0.82628142     1.55700
O2538       O  0.98333396  0.98562233  0.80078740    -0.80000
Cd2539     Cd  0.54117294  0.03296487  0.83148037     1.59700
Cd2540     Cd  0.59484886  0.04454809  0.79548528     1.59600
O2541       O  0.54494886  0.09106676  0.82885478    -0.80000
O2542       O  0.57214516  0.00474305  0.81242243    -1.90500
Cd2543     Cd  0.54046636  0.96799521  0.79760615     1.59900
O2544       O  0.55970136  0.09574708  0.79880085    -0.80000
O2545       O  0.55815174  0.90997540  0.80273148    -0.78600
C2546       C  0.67496086  0.01487547  0.80962840     0.83900
C2547       C  0.58831320  0.00272565  0.86477257     0.83600
O2548       O  0.60965614  0.91954083  0.82075600    -0.77600
C2549       C  0.96677263  0.01143061  0.81072934     0.84400
O2550       O  0.65815002  0.98890930  0.81862742    -0.77700
C2551       C  0.54231343  0.10866274  0.81336569     0.84500
C2552       C  0.56422090  0.00238504  0.75996323     0.84800
O2553       O  0.58417017  0.02906379  0.76765315    -0.80100
O2554       O  0.86042759  0.98500036  0.85360105    -0.77600
C2555       C  0.83837167  0.89746116  0.81122259     0.83400
O2556       O  0.90659255  0.04176948  0.80083537    -0.78700
O2557       O  0.79734943  0.97646507  0.76945423    -0.80200
O2558       O  0.73403041  0.02905562  0.82391228    -0.80000
O2559       O  0.80770678  0.01984233  0.85909990    -0.78600
Zn2560     Zn  0.85880953  0.97494769  0.82627613     1.55700
O2561       O  0.73333225  0.98562912  0.80078443    -0.80000
Cd2562     Cd  0.79117775  0.03297003  0.83147489     1.59700
Cd2563     Cd  0.84485472  0.04455029  0.79548071     1.59600
O2564       O  0.79495690  0.09107046  0.82884802    -0.80000
O2565       O  0.82214686  0.00474593  0.81241706    -1.90500
Cd2566     Cd  0.79046445  0.96800027  0.79760167     1.59900
O2567       O  0.80970497  0.09574916  0.79879378    -0.80000
O2568       O  0.80814665  0.90997818  0.80272606    -0.78600
C2569       C  0.92496210  0.01487205  0.80962701     0.83900
C2570       C  0.83831912  0.00272955  0.86476673     0.83600
O2571       O  0.85965071  0.91954105  0.82075091    -0.77600
C2572       C  0.71677221  0.01143583  0.81072789     0.84400
O2573       O  0.90814830  0.98890405  0.81862332    -0.77700
C2574       C  0.79231718  0.10866455  0.81335872     0.84500
C2575       C  0.81422404  0.00238919  0.75995927     0.84800
O2576       O  0.83417890  0.02906434  0.76764877    -0.80100
O2577       O  0.51464254  0.58423875  0.17869561    -0.77600
C2578       C  0.53594897  0.50099778  0.13467580     0.83400
O2579       O  0.96772893  0.46202589  0.19863986    -0.78700
O2580       O  0.57931258  0.41271616  0.17059818    -0.80200
O2581       O  0.64098341  0.51815798  0.19865916    -0.80000
O2582       O  0.56617083  0.59380982  0.19670436    -0.78600
Zn2583     Zn  0.51549468  0.52882432  0.17316750     1.55700
O2584       O  0.64028384  0.47470385  0.17554410    -0.80000
Cd2585     Cd  0.58385762  0.53579810  0.20183345     1.59700
Cd2586     Cd  0.52947939  0.45925153  0.20398647     1.59600
O2587       O  0.57701752  0.52737939  0.22998266    -0.80000
O2588       O  0.55216374  0.49903895  0.18703112    -1.90500
Cd2589     Cd  0.58312784  0.47081026  0.16797204     1.59900
O2590       O  0.54022042  0.47476279  0.23181608    -0.80000
O2591       O  0.56657442  0.48390523  0.14034229    -0.78600
C2592       C  0.94935449  0.48889545  0.18982936     0.83900
C2593       C  0.53593239  0.60632190  0.18821785     0.83600
O2594       O  0.51385176  0.51874216  0.14584152    -0.77600
C2595       C  0.65754182  0.49233335  0.18872677     0.84400
O2596       O  0.96616560  0.51484720  0.18082122    -0.77700
C2597       C  0.56018140  0.50145416  0.23949105     0.84500
C2598       C  0.58197735  0.39512350  0.18608635     0.84800
O2599       O  0.56462051  0.40804511  0.20065913    -0.80100
O2600       O  0.76463490  0.58424701  0.17869636    -0.77600
C2601       C  0.78594734  0.50100661  0.13467415     0.83400
O2602       O  0.71773432  0.46203269  0.19864308    -0.78700
O2603       O  0.82930494  0.41272255  0.17059491    -0.80200
O2604       O  0.89098621  0.51816767  0.19865234    -0.80000
O2605       O  0.81617417  0.59382211  0.19669739    -0.78600
Zn2606     Zn  0.76549034  0.52883207  0.17316649     1.55700
O2607       O  0.89028226  0.47470332  0.17554182    -0.80000
Cd2608     Cd  0.83386208  0.53581181  0.20182761     1.59700
Cd2609     Cd  0.77948618  0.45926391  0.20398530     1.59600
O2610       O  0.82702591  0.52740098  0.22997789    -0.80000
O2611       O  0.80216499  0.49905005  0.18702811    -1.90500
Cd2612     Cd  0.83312629  0.47081713  0.16796929     1.59900
O2613       O  0.79023270  0.47478193  0.23181314    -0.80000
O2614       O  0.81657398  0.48391548  0.14034020    -0.78600
C2615       C  0.69935534  0.48889782  0.18983175     0.83900
C2616       C  0.78592948  0.60633192  0.18821527     0.83600
O2617       O  0.76384902  0.51874938  0.14584012    -0.77600
C2618       C  0.90754171  0.49233636  0.18872286     0.84400
O2619       O  0.71616227  0.51484903  0.18082129    -0.77700
C2620       C  0.81019165  0.50147586  0.23948720     0.84500
C2621       C  0.83197463  0.39513120  0.18608328     0.84800
O2622       O  0.81462518  0.40805638  0.20065734    -0.80100
O2623       O  0.54705907  0.58417407  0.07075355    -0.77600
C2624       C  0.52575951  0.50098244  0.11477702     0.83400
O2625       O  0.59398987  0.46195988  0.05082192    -0.78700
O2626       O  0.98234131  0.41266536  0.07885315    -0.80200
O2627       O  0.92073784  0.51808294  0.05077939    -0.80000
O2628       O  0.99554745  0.59374193  0.05273359    -0.78600
Zn2629     Zn  0.54621673  0.52876684  0.07628048     1.55700
O2630       O  0.92142561  0.47469038  0.07392213    -0.80000
Cd2631     Cd  0.97786564  0.53572411  0.04760409     1.59700
Cd2632     Cd  0.53224497  0.45917948  0.04547331     1.59600
O2633       O  0.98473480  0.52728534  0.01945398    -0.80000
O2634       O  0.50954794  0.49897551  0.06241975    -1.90500
Cd2635     Cd  0.97857924  0.47076617  0.08148516     1.59900
O2636       O  0.52153541  0.47466923  0.01763906    -0.80000
O2637       O  0.99513813  0.48387652  0.10911427    -0.78600
C2638       C  0.61236231  0.48884165  0.05962409     0.83900
C2639       C  0.52577661  0.60625572  0.06122772     0.83600
O2640       O  0.54785684  0.51871270  0.10360671    -0.77600
C2641       C  0.90417358  0.49228861  0.06072812     0.84400
O2642       O  0.59555016  0.51479993  0.06862738    -0.77700
C2643       C  0.00158709  0.50135627  0.00995366     0.84500
C2644       C  0.97972250  0.39506040  0.06336567     0.84800
O2645       O  0.49711163  0.40797320  0.04880018    -0.80100
O2646       O  0.79705320  0.58418074  0.07075144    -0.77600
C2647       C  0.77575771  0.50099019  0.11477550     0.83400
O2648       O  0.84398884  0.46196851  0.05081986    -0.78700
O2649       O  0.73234564  0.41266589  0.07885284    -0.80200
O2650       O  0.67073556  0.51807974  0.05077957    -0.80000
O2651       O  0.74553853  0.59374768  0.05273349    -0.78600
Zn2652     Zn  0.79621413  0.52877343  0.07627875     1.55700
O2653       O  0.67142808  0.47468591  0.07392171    -0.80000
Cd2654     Cd  0.72786107  0.53572785  0.04760393     1.59700
Cd2655     Cd  0.78224321  0.45918384  0.04547157     1.59600
O2656       O  0.73472921  0.52729291  0.01945366    -0.80000
O2657       O  0.75954669  0.49897935  0.06241835    -1.90500
Cd2658     Cd  0.72858154  0.47076677  0.08148407     1.59900
O2659       O  0.77152777  0.47467527  0.01763803    -0.80000
O2660       O  0.74513855  0.48388020  0.10911288    -0.78600
C2661       C  0.86236137  0.48884901  0.05962308     0.83900
C2662       C  0.77576865  0.60626230  0.06122665     0.83600
O2663       O  0.79785339  0.51872203  0.10360507    -0.77600
C2664       C  0.65417410  0.49228332  0.06072813     0.84400
O2665       O  0.84554910  0.51480691  0.06862669    -0.77700
C2666       C  0.75157993  0.50136321  0.00995305     0.84500
C2667       C  0.72972552  0.39506074  0.06336551     0.84800
O2668       O  0.74711259  0.40797455  0.04879954    -0.80100
O2669       O  0.67211717  0.16954085  0.17868455    -0.77600
C2670       C  0.65079258  0.25273434  0.13467011     0.83400
O2671       O  0.71906317  0.29175966  0.19861741    -0.78700
O2672       O  0.60742111  0.34107198  0.17059282    -0.80200
O2673       O  0.54580659  0.23563704  0.19865908    -0.80000
O2674       O  0.62060377  0.15997762  0.19670401    -0.78600
Zn2675     Zn  0.67128313  0.22495293  0.17316225     1.55700
O2676       O  0.54650173  0.27905213  0.17552645    -0.80000
Cd2677     Cd  0.60293592  0.21800146  0.20183733     1.59700
Cd2678     Cd  0.65732184  0.29455258  0.20396283     1.59600
O2679       O  0.60981673  0.22645863  0.22998579    -0.80000
O2680       O  0.63461874  0.25475002  0.18702280    -1.90500
Cd2681     Cd  0.60364921  0.28297116  0.16796402     1.59900
O2682       O  0.64661966  0.27907580  0.23179359    -0.80000
O2683       O  0.62017901  0.26984562  0.14033738    -0.78600
C2684       C  0.73743437  0.26487149  0.18981946     0.83900
C2685       C  0.65082860  0.14745869  0.18820739     0.83600
O2686       O  0.67290168  0.23500787  0.14583629    -0.77600
C2687       C  0.52924562  0.26143919  0.18871390     0.84400
O2688       O  0.72062215  0.23891279  0.18081596    -0.77700
C2689       C  0.62667126  0.25239427  0.23948171     0.84500
C2690       C  0.60479487  0.35867260  0.18608106     0.84800
O2691       O  0.62218712  0.34575968  0.20064507    -0.80100
O2692       O  0.92211903  0.16954347  0.17868225    -0.77600
C2693       C  0.90079233  0.25273355  0.13466901     0.83400
O2694       O  0.96906424  0.29177226  0.19861009    -0.78700
O2695       O  0.85740161  0.34107119  0.17058998    -0.80200
O2696       O  0.79581084  0.23563760  0.19866470    -0.80000
O2697       O  0.87060949  0.15998168  0.19670435    -0.78600
Zn2698     Zn  0.92128474  0.22495632  0.17316087     1.55700
O2699       O  0.79649777  0.27903920  0.17552628    -0.80000
Cd2700     Cd  0.85294297  0.21800577  0.20183757     1.59700
Cd2701     Cd  0.90732459  0.29456233  0.20395806     1.59600
O2702       O  0.85983246  0.22646705  0.22998424    -0.80000
O2703       O  0.88462041  0.25475471  0.18702091    -1.90500
Cd2704     Cd  0.85364419  0.28296810  0.16796245     1.59900
O2705       O  0.89662867  0.27908942  0.23179004    -0.80000
O2706       O  0.87017628  0.26984091  0.14033608    -0.78600
C2707       C  0.98743498  0.26487963  0.18981526     0.83900
C2708       C  0.90083193  0.14746182  0.18820615     0.83600
O2709       O  0.92290424  0.23501112  0.14583534    -0.77600
C2710       C  0.77924554  0.26143274  0.18871705     0.84400
O2711       O  0.97062278  0.23891626  0.18081496    -0.77700
C2712       C  0.87668427  0.25240615  0.23947903     0.84500
C2713       C  0.85478848  0.35867781  0.18607720     0.84800
O2714       O  0.87218971  0.34576897  0.20063964    -0.80100
O2715       O  0.63960987  0.16947754  0.07076491    -0.77600
C2716       C  0.66095928  0.25271457  0.11477050     0.83400
O2717       O  0.59268268  0.29166625  0.05080781    -0.78700
O2718       O  0.70429474  0.34099425  0.07884945    -0.80200
O2719       O  0.76593875  0.23552888  0.05078306    -0.80000
O2720       O  0.69108210  0.15990739  0.05271771    -0.78600
Zn2721     Zn  0.64046096  0.22489253  0.07628491     1.55700
O2722       O  0.76524055  0.27899308  0.07389421    -0.80000
Cd2723     Cd  0.70880173  0.21791564  0.04760025     1.59700
Cd2724     Cd  0.65442798  0.29446566  0.04546542     1.59600
O2725       O  0.70195975  0.22636790  0.01945132    -0.80000
O2726       O  0.67712292  0.25467260  0.06241289    -1.90500
Cd2727     Cd  0.70809774  0.28289792  0.08146841     1.59900
O2728       O  0.66515993  0.27898375  0.01763275    -0.80000
O2729       O  0.69158688  0.26979232  0.10909817    -0.78600
C2730       C  0.57431095  0.26479117  0.05961525     0.83900
C2731       C  0.66086444  0.14739712  0.06122276     0.83600
O2732       O  0.63883842  0.23498749  0.10360957    -0.77600
C2733       C  0.78249835  0.26135375  0.06071552     0.84400
O2734       O  0.59112309  0.23884750  0.06862866    -0.77700
C2735       C  0.68511779  0.25230063  0.00994984     0.84500
C2736       C  0.70692433  0.35860015  0.06336343     0.84800
O2737       O  0.68954941  0.34568280  0.04879509    -0.80100
O2738       O  0.88960048  0.16948277  0.07076098    -0.77600
C2739       C  0.91095911  0.25271399  0.11476948     0.83400
O2740       O  0.84268161  0.29166719  0.05080336    -0.78700
O2741       O  0.95428915  0.34099512  0.07884893    -0.80200
O2742       O  0.51593934  0.23552424  0.05078560    -0.80000
O2743       O  0.94108175  0.15990932  0.05272024    -0.78600
Zn2744     Zn  0.89045871  0.22489598  0.07628367     1.55700
O2745       O  0.51524045  0.27899498  0.07389388    -0.80000
Cd2746     Cd  0.95880197  0.21791563  0.04760062     1.59700
Cd2747     Cd  0.90442823  0.29446586  0.04546315     1.59600
O2748       O  0.95196367  0.22636451  0.01945053    -0.80000
O2749       O  0.92712228  0.25467448  0.06241190    -1.90500
Cd2750     Cd  0.95809680  0.28289974  0.08146758     1.59900
O2751       O  0.91516482  0.27898096  0.01763106    -0.80000
O2752       O  0.94158569  0.26979346  0.10909715    -0.78600
C2753       C  0.82431003  0.26479590  0.05961357     0.83900
C2754       C  0.91085920  0.14740101  0.06122185     0.83600
O2755       O  0.88883894  0.23498601  0.10360858    -0.77600
C2756       C  0.53249908  0.26135067  0.06071701     0.84400
O2757       O  0.84112248  0.23885639  0.06862941    -0.77700
C2758       C  0.93512253  0.25229726  0.00994850     0.84500
C2759       C  0.95692097  0.35860057  0.06336296     0.84800
O2760       O  0.93954854  0.34568304  0.04879393    -0.80100
O2761       O  0.63961505  0.08423516  0.17868085    -0.77600
C2762       C  0.66093413  0.00098639  0.13465493     0.83400
O2763       O  0.59271145  0.96202067  0.19861837    -0.78700
O2764       O  0.70428209  0.91268776  0.17058060    -0.80200
O2765       O  0.76596806  0.01814375  0.19862106    -0.80000
O2766       O  0.69115656  0.09379979  0.19668093    -0.78600
Zn2767     Zn  0.64047895  0.02882024  0.17314506     1.55700
O2768       O  0.76526066  0.97467573  0.17551192    -0.80000
Cd2769     Cd  0.70884567  0.03578567  0.20180525     1.59700
Cd2770     Cd  0.65446174  0.95924511  0.20396770     1.59600
O2771       O  0.70202512  0.02737198  0.22995694    -0.80000
O2772       O  0.67714483  0.99902516  0.18700752    -1.90500
Cd2773     Cd  0.70810077  0.97078063  0.16794891     1.59900
O2774       O  0.66521115  0.97476857  0.23179756    -0.80000
O2775       O  0.69154448  0.98386785  0.14032107    -0.78600
C2776       C  0.57433645  0.98888025  0.18980081     0.83900
C2777       C  0.66091154  0.10631579  0.18820124     0.83600
O2778       O  0.63885228  0.01875231  0.14581945    -0.77600
C2779       C  0.78252315  0.99231433  0.18869023     0.84400
O2780       O  0.59114700  0.01482776  0.18078931    -0.77700
C2781       C  0.68518385  0.00145656  0.23946938     0.84500
C2782       C  0.70695762  0.89510743  0.18607160     0.84800
O2783       O  0.68960334  0.90803667  0.20064351    -0.80100
O2784       O  0.88961699  0.08423848  0.17867909    -0.77600
C2785       C  0.91094207  0.00099290  0.13465248     0.83400
O2786       O  0.84271208  0.96201679  0.19861183    -0.78700
O2787       O  0.95429986  0.91269197  0.17057714    -0.80200
O2788       O  0.51596588  0.01814317  0.19862709    -0.80000
O2789       O  0.94115759  0.09380164  0.19668004    -0.78600
Zn2790     Zn  0.89048008  0.02882279  0.17314279     1.55700
O2791       O  0.51526441  0.97468704  0.17551284    -0.80000
Cd2792     Cd  0.95884249  0.03578697  0.20180536     1.59700
Cd2793     Cd  0.90446118  0.95924303  0.20396322     1.59600
O2794       O  0.95201265  0.02737305  0.22995585    -0.80000
O2795       O  0.92714547  0.99902671  0.18700538    -1.90500
Cd2796     Cd  0.95810707  0.97078713  0.16794720     1.59900
O2797       O  0.91520751  0.97476302  0.23179425    -0.80000
O2798       O  0.94155341  0.98387657  0.14031898    -0.78600
C2799       C  0.82433648  0.98887730  0.18979529     0.83900
C2800       C  0.91091366  0.10631857  0.18819980     0.83600
O2801       O  0.88885756  0.01875605  0.14581691    -0.77600
C2802       C  0.53252338  0.99231820  0.18869456     0.84400
O2803       O  0.84114645  0.01482807  0.18078558    -0.77700
C2804       C  0.93517507  0.00145364  0.23946715     0.84500
C2805       C  0.95696077  0.89510541  0.18606710     0.84800
O2806       O  0.93959935  0.90803257  0.20063759    -0.80100
O2807       O  0.67204337  0.08417411  0.07074406    -0.77600
C2808       C  0.65074346  0.00097528  0.11475778     0.83400
O2809       O  0.71897269  0.96196146  0.05081015    -0.78700
O2810       O  0.60730656  0.91267420  0.07883893    -0.80200
O2811       O  0.54572041  0.01809127  0.05076176    -0.80000
O2812       O  0.62053305  0.09375202  0.05272508    -0.78600
Zn2813     Zn  0.67119903  0.02876715  0.07626526     1.55700
O2814       O  0.54640287  0.97469946  0.07390445    -0.80000
Cd2815     Cd  0.60284952  0.03573464  0.04759443     1.59700
Cd2816     Cd  0.65722714  0.95918001  0.04546388     1.59600
O2817       O  0.60972926  0.02729775  0.01944741    -0.80000
O2818       O  0.63452815  0.99897933  0.06240671    -1.90500
Cd2819     Cd  0.60355352  0.97077360  0.08146919     1.59900
O2820       O  0.64651780  0.97467207  0.01763296    -0.80000
O2821       O  0.62011671  0.98387802  0.10909619    -0.78600
C2822       C  0.73734412  0.98884907  0.05960847     0.83900
C2823       C  0.65076416  0.10626047  0.06121953     0.83600
O2824       O  0.67284369  0.01870253  0.10358808    -0.77600
C2825       C  0.52915445  0.99229534  0.06070880     0.84400
O2826       O  0.72053087  0.01480939  0.06860944    -0.77700
C2827       C  0.62657611  0.00136386  0.00994823     0.84500
C2828       C  0.60469998  0.89506265  0.06335298     0.84800
O2829       O  0.62209540  0.90797188  0.04878849    -0.80100
O2830       O  0.92204535  0.08417721  0.07073850    -0.77600
C2831       C  0.90075135  0.00098035  0.11475523     0.83400
O2832       O  0.96897023  0.96197075  0.05080166    -0.78700
O2833       O  0.85732335  0.91267593  0.07883533    -0.80200
O2834       O  0.79571688  0.01809160  0.05076635    -0.80000
O2835       O  0.87052196  0.09375773  0.05272850    -0.78600
Zn2836     Zn  0.92120049  0.02877207  0.07626151     1.55700
O2837       O  0.79640852  0.97469455  0.07390681    -0.80000
Cd2838     Cd  0.85284279  0.03574075  0.04759428     1.59700
Cd2839     Cd  0.90722306  0.95919040  0.04545747     1.59600
O2840       O  0.85971522  0.02731335  0.01944500    -0.80000
O2841       O  0.88452793  0.99898538  0.06240359    -1.90500
Cd2842     Cd  0.85356174  0.97077396  0.08146739     1.59900
O2843       O  0.89650629  0.97468984  0.01762798    -0.80000
O2844       O  0.87012756  0.98387775  0.10909394    -0.78600
C2845       C  0.98734294  0.98885444  0.05960231     0.83900
C2846       C  0.90075892  0.10626481  0.06121856     0.83600
O2847       O  0.92284788  0.01871143  0.10358515    -0.77600
C2848       C  0.77915537  0.99229273  0.06071336     0.84400
O2849       O  0.97053081  0.01481205  0.06860549    -0.77700
C2850       C  0.87656253  0.00138154  0.00994439     0.84500
C2851       C  0.85470474  0.89506903  0.06334863     0.84800
O2852       O  0.87209082  0.90798198  0.04878231    -0.80100
O2853       O  0.54712827  0.66954152  0.17869160    -0.77600
C2854       C  0.52580679  0.75272231  0.13467349     0.83400
O2855       O  0.59406679  0.79178166  0.19861116    -0.78700
O2856       O  0.98242603  0.84105125  0.17058192    -0.80200
O2857       O  0.92081500  0.73563231  0.19867015    -0.80000
O2858       O  0.99562327  0.65998080  0.19671773    -0.78600
Zn2859     Zn  0.54629782  0.72495268  0.17316837     1.55700
O2860       O  0.92150800  0.77903873  0.17553391    -0.80000
Cd2861     Cd  0.97794765  0.71800113  0.20184574     1.59700
Cd2862     Cd  0.53232460  0.79456020  0.20396012     1.59600
O2863       O  0.98483856  0.72646620  0.22999260    -0.80000
O2864       O  0.50962749  0.75474431  0.18702653    -1.90500
Cd2865     Cd  0.97865255  0.78294811  0.16796498     1.59900
O2866       O  0.52163614  0.77908827  0.23179369    -0.80000
O2867       O  0.99517754  0.76980707  0.14033970    -0.78600
C2868       C  0.61244171  0.76488086  0.18982400     0.83900
C2869       C  0.52584617  0.64746236  0.18821961     0.83600
O2870       O  0.54793096  0.73501767  0.14584125    -0.77600
C2871       C  0.90425347  0.76143283  0.18872402     0.84400
O2872       O  0.59563272  0.73890785  0.18082897    -0.77700
C2873       C  0.00169506  0.75240529  0.23948543     0.84500
C2874       C  0.97978526  0.85865796  0.18606800     0.84800
O2875       O  0.49717227  0.84575463  0.20063551    -0.80100
O2876       O  0.79712107  0.66955036  0.17868728    -0.77600
C2877       C  0.77581261  0.75273861  0.13467342     0.83400
O2878       O  0.84407162  0.79178029  0.19861247    -0.78700
O2879       O  0.73243514  0.84106202  0.17058481    -0.80200
O2880       O  0.67081596  0.73564208  0.19866847    -0.80000
O2881       O  0.74562443  0.65999189  0.19671919    -0.78600
Zn2882     Zn  0.79629550  0.72496114  0.17316714     1.55700
O2883       O  0.67150845  0.77905183  0.17553362    -0.80000
Cd2884     Cd  0.72794826  0.71801305  0.20184624     1.59700
Cd2885     Cd  0.78233019  0.79456710  0.20396105     1.59600
O2886       O  0.73483531  0.72648250  0.22999305    -0.80000
O2887       O  0.75962888  0.75475439  0.18702673    -1.90500
Cd2888     Cd  0.72865541  0.78296094  0.16796555     1.59900
O2889       O  0.77164175  0.77909813  0.23179440    -0.80000
O2890       O  0.74518458  0.76982550  0.14033983    -0.78600
C2891       C  0.86244264  0.76487626  0.18982573     0.83900
C2892       C  0.77584275  0.64747220  0.18821759     0.83600
O2893       O  0.79793399  0.73502997  0.14584084    -0.77600
C2894       C  0.65425347  0.76144255  0.18872273     0.84400
O2895       O  0.84563041  0.73890684  0.18082985    -0.77700
C2896       C  0.75169524  0.75241923  0.23948594     0.84500
C2897       C  0.72978962  0.85866492  0.18607160     0.84800
O2898       O  0.74717742  0.84576145  0.20063883    -0.80100
O2899       O  0.51460822  0.66947538  0.07076623    -0.77600
C2900       C  0.53597037  0.75270665  0.11477295     0.83400
O2901       O  0.96767911  0.79164651  0.05079458    -0.78700
O2902       O  0.57928847  0.84099279  0.07883932    -0.80200
O2903       O  0.64093679  0.73552505  0.05078385    -0.80000
O2904       O  0.56608956  0.65990463  0.05272496    -0.78600
Zn2905     Zn  0.51545941  0.72489133  0.07628695     1.55700
O2906       O  0.64023712  0.77898920  0.07389490    -0.80000
Cd2907     Cd  0.58380159  0.71791108  0.04760137     1.59700
Cd2908     Cd  0.52942381  0.79445193  0.04545842     1.59600
O2909       O  0.57696493  0.72635120  0.01945093    -0.80000
O2910       O  0.55211993  0.75466900  0.06241189    -1.90500
Cd2911     Cd  0.58309415  0.78289835  0.08146624     1.59900
O2912       O  0.54016507  0.77896580  0.01762820    -0.80000
O2913       O  0.56659113  0.76979393  0.10909846    -0.78600
C2914       C  0.94930785  0.76478484  0.05961151     0.83900
C2915       C  0.53587030  0.64739390  0.06122837     0.83600
O2916       O  0.51384936  0.73497778  0.10361274    -0.77600
C2917       C  0.65749581  0.76134848  0.06071706     0.84400
O2918       O  0.96611992  0.73885436  0.06863417    -0.77700
C2919       C  0.56012491  0.75228210  0.00994749     0.84500
C2920       C  0.58190840  0.85859750  0.06335250     0.84800
O2921       O  0.56453212  0.84567626  0.04878537    -0.80100
O2922       O  0.76460733  0.66948156  0.07076920    -0.77600
C2923       C  0.78597583  0.75272101  0.11477285     0.83400
O2924       O  0.71767520  0.79165425  0.05079872    -0.78700
O2925       O  0.82929838  0.84099896  0.07883629    -0.80200
O2926       O  0.89093383  0.73552443  0.05078033    -0.80000
O2927       O  0.81607684  0.65991229  0.05271994    -0.78600
Zn2928     Zn  0.76546164  0.72489881  0.07628871     1.55700
O2929       O  0.89024036  0.77898974  0.07389086    -0.80000
Cd2930     Cd  0.83379528  0.71791844  0.04759910     1.59700
Cd2931     Cd  0.77941855  0.79446142  0.04545980     1.59600
O2932       O  0.82695665  0.72636688  0.01944978    -0.80000
O2933       O  0.80211878  0.75467695  0.06241151    -1.90500
Cd2934     Cd  0.83309870  0.78290474  0.08146406     1.59900
O2935       O  0.79015347  0.77897937  0.01762868    -0.80000
O2936       O  0.81659666  0.76980683  0.10909735    -0.78600
C2937       C  0.69930668  0.76479095  0.05961579     0.83900
C2938       C  0.78586247  0.64740087  0.06122720     0.83600
O2939       O  0.76385472  0.73498965  0.10361370    -0.77600
C2940       C  0.90749642  0.76134657  0.06071297     0.84400
O2941       O  0.71612120  0.73886080  0.06863754    -0.77700
C2942       C  0.81011502  0.75229743  0.00994722     0.84500
C2943       C  0.83191141  0.85860491  0.06334957     0.84800
O2944       O  0.81452765  0.84568569  0.04878414    -0.80100
loop_ 
_geom_bond_atom_site_label_1 
_geom_bond_atom_site_label_2 
_geom_bond_distance 
_geom_bond_site_symmetry_2 
_ccdc_geom_bond_type 
O1           C17   1.266       .  A
O1           Zn7   1.987       .  S
C2           O18   1.262       .  A
C2           O15   1.285       .  A
C2          C186   1.470       .  S
O3           C16   1.293       .  A
O3          Cd10   2.172       .  S
O4           C22   1.269       .  A
O4          Cd13   2.049       .  S
O5           C19   1.273       .  A
O5        Cd1481   2.054       .  S
O6           C17   1.280       .  A
O6           Cd9   2.108       .  S
Zn7          O18   1.964       .  S
Zn7          O20   1.857       .  S
Zn7          O12   1.913       .  S
O8           C19   1.279       .  A
O8        Cd1485   2.081       .  S
Cd9          O11   2.029       .  S
Cd9        O1477   2.054   1_455  S
Cd9          O12   1.992       .  S
Cd10         O14   2.166       .  S
Cd10         O23   2.096       .  S
Cd10         O12   1.998       .  S
O11          C21   1.269       .  A
O12         Cd13   1.988       .  S
Cd13         O15   2.136       .  S
Cd13       O1480   2.081   1_455  S
O14          C21   1.284       .  A
C16          O20   1.251       .  A
C16          C42   1.453       .  S
C17          C63   1.467       .  S
C19          C39   1.453       .  S
C21         C136   1.491       .  S
C22          O23   1.279       .  A
C22        C1125   1.471       .  S
O24          C40   1.266       .  A
O24         Zn30   1.987       .  S
C25          O41   1.262       .  A
C25          O38   1.285       .  A
C25         C209   1.470       .  S
O26          C39   1.293       .  A
O26         Cd33   2.172       .  S
O27          C45   1.269       .  A
O27         Cd36   2.049       .  S
O28          C42   1.273       .  A
O28         Cd32   2.054       .  S
O29          C40   1.280       .  A
O29         Cd32   2.108       .  S
Zn30         O41   1.964       .  S
Zn30         O43   1.857       .  S
Zn30         O35   1.913       .  S
O31          C42   1.279       .  A
O31         Cd36   2.081       .  S
Cd32         O34   2.029       .  S
Cd32         O35   1.992       .  S
Cd33         O37   2.166       .  S
Cd33         O46   2.096       .  S
Cd33         O35   1.999       .  S
O34          C44   1.269       .  A
O35         Cd36   1.988       .  S
Cd36         O38   2.136       .  S
O37          C44   1.284       .  A
C39          O43   1.251       .  A
C40          C86   1.467       .  S
C44         C113   1.491       .  S
C45          O46   1.279       .  A
C45        C1148   1.471       .  S
O47          C63   1.266       .  A
O47         Zn53   1.987       .  S
C48          O64   1.262       .  A
C48          O61   1.285       .  A
C48         C232   1.470       .  S
O49          C62   1.293       .  A
O49         Cd56   2.172       .  S
O50          C68   1.269       .  A
O50         Cd59   2.049       .  S
O51          C65   1.273       .  A
O51         Cd55   2.054       .  S
O52          C63   1.280       .  A
O52         Cd55   2.108       .  S
Zn53         O64   1.963       .  S
Zn53         O66   1.857       .  S
Zn53         O58   1.913       .  S
O54          C65   1.279       .  A
O54         Cd59   2.081       .  S
Cd55         O57   2.029       .  S
Cd55         O58   1.992       .  S
Cd56         O60   2.166       .  S
Cd56         O69   2.096       .  S
Cd56         O58   1.998       .  S
O57          C67   1.269       .  A
O58         Cd59   1.988       .  S
Cd59         O61   2.136       .  S
O60          C67   1.284       .  A
C62          O66   1.251       .  A
C62        C1560   1.453   1_455  S
C65          C85   1.453       .  S
C67         C159   1.491       .  S
C68          O69   1.279       .  A
C68         C389   1.471       .  S
O70          C86   1.266       .  A
O70         Zn76   1.987       .  S
C71          O87   1.262       .  A
C71          O84   1.285       .  A
C71         C255   1.470       .  S
O72          C85   1.293       .  A
O72         Cd79   2.172       .  S
O73          C91   1.269       .  A
O73         Cd82   2.049       .  S
O74          C88   1.273       .  A
O74         Cd78   2.054       .  S
O75          C86   1.280       .  A
O75         Cd78   2.108       .  S
Zn76         O87   1.963       .  S
Zn76         O89   1.857       .  S
Zn76         O81   1.913       .  S
O77          C88   1.279       .  A
O77         Cd82   2.081       .  S
Cd78         O80   2.029       .  S
Cd78         O81   1.992       .  S
Cd79         O83   2.166       .  S
Cd79         O92   2.096       .  S
Cd79         O81   1.998       .  S
O80          C90   1.269       .  A
O81         Cd82   1.988       .  S
Cd82         O84   2.136       .  S
O83          C90   1.284       .  A
C85          O89   1.251       .  A
C88        C1534   1.453       .  S
C90         C182   1.491       .  S
C91          O92   1.279       .  A
C91         C412   1.471       .  S
O93         C109   1.266       .  A
O93         Zn99   1.987       .  S
C94         O110   1.262       .  A
C94         O107   1.285       .  A
C94         C278   1.470       .  S
O95         C108   1.293       .  A
O95        Cd102   2.172       .  S
O96         C114   1.270       .  A
O96        Cd105   2.049       .  S
O97         C111   1.273       .  A
O97        Cd101   2.054       .  S
O98         C109   1.280       .  A
O98        Cd101   2.108       .  S
Zn99        O110   1.963       .  S
Zn99        O112   1.857       .  S
Zn99        O104   1.913       .  S
O100        C111   1.279       .  A
O100       Cd105   2.081       .  S
Cd101       O103   2.029       .  S
Cd101       O104   1.992       .  S
Cd102       O106   2.166       .  S
Cd102       O115   2.096       .  S
Cd102       O104   1.998       .  S
O103        C113   1.269       .  A
O104       Cd105   1.988       .  S
Cd105       O107   2.136       .  S
O106        C113   1.284       .  A
C108        O112   1.251       .  A
C108        C134   1.453       .  S
C109        C155   1.467       .  S
C111        C131   1.453       .  S
C114        O115   1.279       .  A
C114       C1424   1.471       .  S
O116        C132   1.266       .  A
O116       Zn122   1.987       .  S
C117        O133   1.262       .  A
C117       O1602   1.285       .  A
C117        C301   1.470       .  S
O118        C131   1.293       .  A
O118       Cd125   2.172       .  S
O119        C137   1.269   1_455  A
O119       Cd128   2.049       .  S
O120        C134   1.273       .  A
O120       Cd124   2.054       .  S
O121       C1604   1.280   1_455  A
O121       Cd124   2.108       .  S
Zn122       O133   1.963       .  S
Zn122       O135   1.857       .  S
Zn122       O127   1.914       .  S
O123        C134   1.279       .  A
O123       Cd128   2.081       .  S
Cd124       O126   2.029       .  S
Cd124      O1599   1.992   1_455  S
Cd125       O129   2.166       .  S
Cd125       O138   2.096       .  S
Cd125       O127   1.998       .  S
O126        C136   1.269       .  A
O127      Cd1596   1.992       .  S
O127      Cd1600   1.988       .  S
Cd128       O130   2.136       .  S
Cd128      O1599   1.988   1_455  S
O129       C1608   1.284       .  A
O130       C1589   1.285   1_455  A
C131        O135   1.251       .  A
C132       O1593   1.280       .  A
C132        C178   1.467       .  S
C136       O1601   1.284       .  A
C137       O1610   1.279       .  A
C137       C2873   1.471   1_655  S
O138       C1609   1.279       .  A
O139        C155   1.266       .  A
O139       Zn145   1.987       .  S
C140        O156   1.262       .  A
C140        O153   1.285       .  A
C140        C324   1.470       .  S
O141        C154   1.293       .  A
O141       Cd148   2.172       .  S
O142        C160   1.269       .  A
O142       Cd151   2.049       .  S
O143        C157   1.273       .  A
O143       Cd147   2.054       .  S
O144        C155   1.280       .  A
O144       Cd147   2.108       .  S
Zn145       O156   1.963       .  S
Zn145       O158   1.857       .  S
Zn145       O150   1.913       .  S
O146        C157   1.279       .  A
O146       Cd151   2.081       .  S
Cd147       O149   2.029       .  S
Cd147       O150   1.992       .  S
Cd148       O152   2.166       .  S
Cd148       O161   2.096       .  S
Cd148       O150   1.998       .  S
O149        C159   1.269       .  A
O150       Cd151   1.988       .  S
Cd151       O153   2.136       .  S
O152        C159   1.284       .  A
C154        O158   1.251       .  A
C154        C180   1.453       .  S
C157        C177   1.453       .  S
C160        O161   1.279       .  A
C160        C665   1.471       .  S
O162        C178   1.266       .  A
O162       Zn168   1.987       .  S
C163        O179   1.262       .  A
C163        O176   1.285       .  A
C163        C347   1.470       .  S
O164        C177   1.293       .  A
O164      Cd1643   2.172   1_455  S
O165        C183   1.269       .  A
O165       Cd174   2.049       .  S
O166        C180   1.273       .  A
O166       Cd170   2.054       .  S
O167        C178   1.280       .  A
O167       Cd170   2.108       .  S
Zn168       O179   1.963       .  S
Zn168      O1653   1.857       .  S
Zn168       O173   1.913       .  S
O169        C180   1.279       .  A
O169       Cd174   2.081       .  S
Cd170       O172   2.029       .  S
Cd170       O173   1.992       .  S
Cd171       O175   2.166       .  S
Cd171       O184   2.096       .  S
Cd171      O1636   2.172       .  S
Cd171       O173   1.998       .  S
O172        C182   1.269       .  A
O173       Cd174   1.988       .  S
Cd174       O176   2.136       .  S
O175        C182   1.284       .  A
C177        O181   1.251       .  A
O181      Zn1640   1.857   1_455  S
C183        O184   1.279       .  A
C183        C688   1.471       .  S
O185        C201   1.266       .  A
O185       Zn191   1.987       .  S
C186        O202   1.262       .  A
C186        O199   1.285       .  A
O187        C200   1.293       .  A
O187       Cd194   2.172       .  S
O188        C206   1.270       .  A
O188       Cd197   2.049       .  S
O189        C203   1.273       .  A
O189       Cd193   2.054       .  S
O190        C201   1.280       .  A
O190       Cd193   2.108       .  S
Zn191       O202   1.963       .  S
Zn191       O204   1.857       .  S
Zn191       O196   1.913       .  S
O192        C203   1.279       .  A
O192       Cd197   2.081       .  S
Cd193       O195   2.029       .  S
Cd193       O196   1.992       .  S
Cd194       O198   2.166       .  S
Cd194       O207   2.096       .  S
Cd194       O196   1.998       .  S
O195        C205   1.269       .  A
O196       Cd197   1.988       .  S
Cd197       O199   2.136       .  S
O198        C205   1.284       .  A
C200        O204   1.251       .  A
C200       C1698   1.453   1_455  S
C201        C247   1.467       .  S
C203        C223   1.453       .  S
C205        C297   1.491       .  S
C206        O207   1.279       .  A
C206       C1217   1.471       .  S
O208        C224   1.266       .  A
O208       Zn214   1.987       .  S
C209        O225   1.262       .  A
C209        O222   1.285       .  A
O210        C223   1.293       .  A
O210       Cd217   2.172       .  S
O211        C229   1.270       .  A
O211       Cd220   2.049       .  S
O212        C226   1.273       .  A
O212       Cd216   2.054       .  S
O213        C224   1.280       .  A
O213       Cd216   2.108       .  S
Zn214       O225   1.963       .  S
Zn214       O227   1.857       .  S
Zn214       O219   1.913       .  S
O215        C226   1.279       .  A
O215       Cd220   2.081       .  S
Cd216       O218   2.029       .  S
Cd216       O219   1.992       .  S
Cd217       O221   2.166       .  S
Cd217       O230   2.095       .  S
Cd217       O219   1.998       .  S
O218        C228   1.269       .  A
O219       Cd220   1.988       .  S
Cd220       O222   2.136       .  S
O221        C228   1.284       .  A
C223        O227   1.251       .  A
C224        C270   1.467       .  S
C226       C1672   1.453       .  S
C228        C320   1.491       .  S
C229        O230   1.279       .  A
C229       C1240   1.471       .  S
O231        C247   1.266       .  A
O231       Zn237   1.987       .  S
C232        O248   1.262       .  A
C232        O245   1.285       .  A
O233        C246   1.293       .  A
O233       Cd240   2.172       .  S
O234        C252   1.269       .  A
O234       Cd243   2.049       .  S
O235        C249   1.273       .  A
O235      Cd1711   2.054       .  S
O236        C247   1.280       .  A
O236       Cd239   2.107       .  S
Zn237       O248   1.963       .  S
Zn237       O250   1.857       .  S
Zn237       O242   1.914       .  S
O238        C249   1.279       .  A
O238      Cd1715   2.081       .  S
Cd239       O241   2.029       .  S
Cd239      O1707   2.054   1_455  S
Cd239       O242   1.992       .  S
Cd240       O244   2.166       .  S
Cd240       O253   2.096       .  S
Cd240       O242   1.998       .  S
O241        C251   1.269       .  A
O242       Cd243   1.988       .  S
Cd243       O245   2.136       .  S
Cd243      O1710   2.081   1_455  S
O244        C251   1.284       .  A
C246        O250   1.251       .  A
C246        C272   1.453       .  S
C249        C269   1.453       .  S
C251        C366   1.491       .  S
C252        O253   1.279       .  A
C252        C527   1.471       .  S
O254        C270   1.266       .  A
O254       Zn260   1.987       .  S
C255        O271   1.262       .  A
C255        O268   1.285       .  A
O256        C269   1.293       .  A
O256       Cd263   2.172       .  S
O257        C275   1.269       .  A
O257       Cd266   2.049       .  S
O258        C272   1.273       .  A
O258       Cd262   2.054       .  S
O259        C270   1.280       .  A
O259       Cd262   2.107       .  S
Zn260       O271   1.963       .  S
Zn260       O273   1.857       .  S
Zn260       O265   1.914       .  S
O261        C272   1.279       .  A
O261       Cd266   2.081       .  S
Cd262       O264   2.029       .  S
Cd262       O265   1.992       .  S
Cd263       O267   2.166       .  S
Cd263       O276   2.096       .  S
Cd263       O265   1.998       .  S
O264        C274   1.269       .  A
O265       Cd266   1.988       .  S
Cd266       O268   2.136       .  S
O267        C274   1.284       .  A
C269        O273   1.251       .  A
C274        C343   1.491       .  S
C275        O276   1.279       .  A
C275        C550   1.471       .  S
O277        C293   1.266   1_565  A
O277       Zn283   1.987       .  S
C278        O294   1.262       .  A
C278        O291   1.285       .  A
O279        C292   1.293       .  A
O279       Cd286   2.172       .  S
O280        C298   1.269   1_565  A
O280       Cd289   2.049       .  S
O281        C295   1.273       .  A
O281       Cd285   2.054       .  S
O282        C293   1.280       .  A
O282       Cd285   2.108       .  S
Zn283       O294   1.963       .  S
Zn283       O296   1.857       .  S
Zn283       O288   1.913   1_565  S
O284        C295   1.279   1_565  A
O284       Cd289   2.081       .  S
Cd285       O287   2.029       .  S
Cd285       O288   1.992       .  S
Cd286       O290   2.166       .  S
Cd286       O299   2.096       .  S
Cd286       O288   1.999       .  S
O287        C297   1.269       .  A
O288       Cd289   1.988   1_545  S
Cd289       O291   2.136       .  S
O290        C297   1.284       .  A
C292        O296   1.251   1_545  A
C292        C318   1.453       .  S
C293        C339   1.467       .  S
C295        C315   1.453       .  S
C298        O299   1.279       .  A
C298       C1309   1.472       .  S
O300        C316   1.266   1_565  A
O300       Zn306   1.987       .  S
C301        O317   1.262       .  A
C301        O314   1.285       .  A
O302        C315   1.293       .  A
O302      Cd1781   2.172   1_455  S
O303        C321   1.269   1_565  A
O303       Cd312   2.049       .  S
O304        C318   1.273       .  A
O304       Cd308   2.054       .  S
O305        C316   1.280       .  A
O305       Cd308   2.108       .  S
Zn306       O317   1.963       .  S
Zn306      O1791   1.857       .  S
Zn306       O311   1.914   1_565  S
O307        C318   1.279   1_565  A
O307       Cd312   2.081       .  S
Cd308       O310   2.029       .  S
Cd308       O311   1.992       .  S
Cd309       O313   2.166       .  S
Cd309       O322   2.096       .  S
Cd309      O1774   2.172       .  S
Cd309       O311   1.999       .  S
O310        C320   1.269       .  A
O311       Cd312   1.988   1_545  S
Cd312       O314   2.136       .  S
O313        C320   1.284       .  A
C315        O319   1.251   1_545  A
C316        C362   1.467       .  S
O319      Zn1778   1.857   1_455  S
C321        O322   1.279       .  A
C321       C1332   1.472       .  S
O323        C339   1.266   1_565  A
O323       Zn329   1.987       .  S
C324        O340   1.262       .  A
C324        O337   1.285       .  A
O325        C338   1.293       .  A
O325       Cd332   2.172       .  S
O326        C344   1.269   1_565  A
O326       Cd335   2.049       .  S
O327        C341   1.273       .  A
O327       Cd331   2.054       .  S
O328        C339   1.280       .  A
O328       Cd331   2.108       .  S
Zn329       O340   1.963       .  S
Zn329       O342   1.857       .  S
Zn329       O334   1.913   1_565  S
O330        C341   1.279   1_565  A
O330       Cd335   2.081       .  S
Cd331       O333   2.029       .  S
Cd331       O334   1.992       .  S
Cd332       O336   2.166       .  S
Cd332       O345   2.096       .  S
Cd332       O334   1.999       .  S
O333        C343   1.269       .  A
O334       Cd335   1.988   1_545  S
Cd335       O337   2.136       .  S
O336        C343   1.284       .  A
C338        O342   1.251   1_545  A
C338        C364   1.453       .  S
C341        C361   1.453       .  S
C344        O345   1.279       .  A
C344        C596   1.472       .  S
O346        C362   1.266   1_565  A
O346       Zn352   1.987       .  S
C347        O363   1.262       .  A
C347       O1832   1.285       .  A
O348        C361   1.293       .  A
O348       Cd355   2.172       .  S
O349        C367   1.269   1_465  A
O349       Cd358   2.049       .  S
O350        C364   1.273       .  A
O350       Cd354   2.054       .  S
O351       C1834   1.280   1_455  A
O351       Cd354   2.108       .  S
Zn352       O363   1.963       .  S
Zn352       O365   1.857       .  S
Zn352       O357   1.914   1_565  S
O353        C364   1.279   1_565  A
O353       Cd358   2.081       .  S
Cd354       O356   2.029       .  S
Cd354      O1829   1.992   1_455  S
Cd355       O359   2.166       .  S
Cd355       O368   2.096       .  S
Cd355       O357   1.999       .  S
O356        C366   1.269       .  A
O357      Cd1826   1.992       .  S
O357      Cd1830   1.988   1_545  S
Cd358       O360   2.136       .  S
Cd358      O1829   1.988   1_465  S
O359       C1838   1.284       .  A
O360       C1819   1.285   1_455  A
C361        O365   1.251   1_545  A
C362       O1823   1.280       .  A
C366       O1831   1.284       .  A
C367       O1840   1.279       .  A
C367       C2045   1.472   1_655  S
O368       C1839   1.279       .  A
O369        C385   1.262       .  A
O369       Zn375   1.964       .  S
C370        O386   1.266       .  A
C370        O383   1.280       .  A
C370        C416   1.467       .  S
O371        C384   1.293       .  A
O371       Cd378   2.172       .  S
O372        C390   1.269       .  A
O372       Cd381   2.029       .  S
O373        C387   1.279       .  A
O373       Cd377   2.081       .  S
O374        C385   1.285       .  A
O374       Cd377   2.136       .  S
Zn375       O386   1.987       .  S
Zn375       O388   1.857       .  S
Zn375       O380   1.913       .  S
O376        C387   1.273       .  A
O376       Cd381   2.054       .  S
Cd377       O379   2.049       .  S
Cd377       O380   1.988       .  S
Cd378       O382   2.096       .  S
Cd378       O391   2.166       .  S
Cd378       O380   1.998       .  S
O379        C389   1.269       .  A
O380       Cd381   1.992       .  S
Cd381       O383   2.107       .  S
O382        C389   1.279       .  A
C384        O388   1.251       .  A
C384        C410   1.453       .  S
C385        C661   1.470       .  S
C387       C1879   1.453   1_455  S
C390        O391   1.284       .  A
C390        C528   1.491       .  S
O392        C408   1.262       .  A
O392       Zn398   1.964       .  S
C393        O409   1.266       .  A
C393        O406   1.280       .  A
C393        C439   1.467       .  S
O394        C407   1.293       .  A
O394       Cd401   2.172       .  S
O395        C413   1.269       .  A
O395       Cd404   2.029       .  S
O396        C410   1.279       .  A
O396       Cd400   2.081       .  S
O397        C408   1.285       .  A
O397       Cd400   2.136       .  S
Zn398       O409   1.987       .  S
Zn398       O411   1.857       .  S
Zn398       O403   1.913       .  S
O399        C410   1.273       .  A
O399       Cd404   2.054       .  S
Cd400       O402   2.049       .  S
Cd400       O403   1.988       .  S
Cd401       O405   2.096       .  S
Cd401       O414   2.166       .  S
Cd401       O403   1.998       .  S
O402        C412   1.269       .  A
O403       Cd404   1.992       .  S
Cd404       O406   2.107       .  S
O405        C412   1.279       .  A
C407        O411   1.251       .  A
C407       C1859   1.453       .  S
C408        C684   1.470       .  S
C413        O414   1.284       .  A
C413        C551   1.491       .  S
O415        C431   1.262       .  A
O415       Zn421   1.963       .  S
C416        O432   1.266       .  A
C416        O429   1.280       .  A
O417        C430   1.293       .  A
O417       Cd424   2.172       .  S
O418        C436   1.269       .  A
O418       Cd427   2.029       .  S
O419        C433   1.279       .  A
O419       Cd423   2.081       .  S
O420        C431   1.285       .  A
O420       Cd423   2.136       .  S
Zn421       O432   1.987       .  S
Zn421       O434   1.857       .  S
Zn421       O426   1.913       .  S
O422        C433   1.273       .  A
O422       Cd427   2.054       .  S
Cd423       O425   2.049       .  S
Cd423       O426   1.988       .  S
Cd424       O428   2.096       .  S
Cd424       O437   2.166       .  S
Cd424       O426   1.998       .  S
O425        C435   1.269       .  A
O426       Cd427   1.992       .  S
Cd427       O429   2.108       .  S
O428        C435   1.279       .  A
C430        O434   1.251       .  A
C430        C456   1.453       .  S
C431        C707   1.470       .  S
C433        C453   1.453       .  S
C435        C804   1.471       .  S
C436        O437   1.284       .  A
C436        C505   1.491       .  S
O438        C454   1.262       .  A
O438       Zn444   1.963       .  S
C439        O455   1.266       .  A
C439        O452   1.280       .  A
O440        C453   1.293       .  A
O440       Cd447   2.172       .  S
O441        C459   1.269       .  A
O441       Cd450   2.029       .  S
O442        C456   1.279       .  A
O442      Cd1918   2.081   1_455  S
O443        C454   1.285       .  A
O443       Cd446   2.136       .  S
Zn444       O455   1.987       .  S
Zn444       O457   1.857       .  S
Zn444       O449   1.913       .  S
O445        C456   1.273       .  A
O445      Cd1922   2.054   1_455  S
Cd446       O448   2.049       .  S
Cd446      O1914   2.081       .  S
Cd446       O449   1.988       .  S
Cd447       O451   2.096       .  S
Cd447       O460   2.166       .  S
Cd447       O449   1.998       .  S
O448        C458   1.269       .  A
O449       Cd450   1.992       .  S
Cd450       O452   2.108       .  S
Cd450      O1917   2.054       .  S
O451        C458   1.279       .  A
C453        O457   1.251       .  A
C454        C730   1.470       .  S
C458        C827   1.471       .  S
C459        O460   1.284       .  A
C459        C482   1.491       .  S
O461        C477   1.263       .  A
O461       Zn467   1.964       .  S
C462        O478   1.266       .  A
C462       O1947   1.280   1_455  A
C462        C508   1.467       .  S
O463        C476   1.293       .  A
O463       Cd470   2.172       .  S
O464        C482   1.269       .  A
O464       Cd473   2.029       .  S
O465        C479   1.279       .  A
O465       Cd469   2.081       .  S
O466       C1949   1.285       .  A
O466       Cd469   2.136       .  S
Zn467       O478   1.987       .  S
Zn467       O480   1.857       .  S
Zn467       O472   1.913       .  S
O468        C479   1.273       .  A
O468       Cd473   2.054       .  S
Cd469       O471   2.049       .  S
Cd469      O1944   1.988       .  S
Cd470       O474   2.096       .  S
Cd470       O483   2.166   1_455  S
Cd470       O472   1.999       .  S
O471        C481   1.269       .  A
O472      Cd1941   1.988   1_455  S
O472      Cd1945   1.992   1_455  S
Cd473       O475   2.108       .  S
Cd473      O1944   1.992       .  S
O474       C1953   1.279       .  A
O475       C1934   1.280       .  A
C476        O480   1.251       .  A
C476        C502   1.453       .  S
C477       O1938   1.285   1_455  A
C477        C615   1.470       .  S
C479        C499   1.453       .  S
C481       O1946   1.279       .  A
C481       C2483   1.471       .  S
C482       O1955   1.284       .  A
O483       C1954   1.284       .  A
O484        C500   1.263       .  A
O484       Zn490   1.964       .  S
C485        O501   1.266       .  A
C485        O498   1.280       .  A
C485        C531   1.467       .  S
O486        C499   1.293       .  A
O486       Cd493   2.172       .  S
O487        C505   1.269       .  A
O487       Cd496   2.029       .  S
O488        C502   1.279       .  A
O488       Cd492   2.081       .  S
O489        C500   1.285       .  A
O489       Cd492   2.136       .  S
Zn490       O501   1.987       .  S
Zn490       O503   1.857       .  S
Zn490       O495   1.913       .  S
O491        C502   1.273       .  A
O491       Cd496   2.054       .  S
Cd492       O494   2.049       .  S
Cd492       O495   1.988       .  S
Cd493       O497   2.096       .  S
Cd493       O506   2.166       .  S
Cd493       O495   1.998       .  S
O494        C504   1.269       .  A
O495       Cd496   1.992       .  S
Cd496       O498   2.108       .  S
O497        C504   1.279       .  A
C499        O503   1.251       .  A
C500        C638   1.470       .  S
C504        C988   1.471       .  S
C505        O506   1.284       .  A
O507        C523   1.262       .  A
O507       Zn513   1.963       .  S
C508        O524   1.266       .  A
C508        O521   1.280       .  A
O509        C522   1.293       .  A
O509      Cd1988   2.172       .  S
O510        C528   1.269       .  A
O510       Cd519   2.029       .  S
O511        C525   1.279       .  A
O511       Cd515   2.081       .  S
O512        C523   1.285       .  A
O512       Cd515   2.136       .  S
Zn513       O524   1.987       .  S
Zn513      O1998   1.857   1_455  S
Zn513       O518   1.913       .  S
O514        C525   1.273       .  A
O514       Cd519   2.054       .  S
Cd515       O517   2.049       .  S
Cd515       O518   1.988       .  S
Cd516       O520   2.096       .  S
Cd516       O529   2.166       .  S
Cd516      O1981   2.172   1_455  S
Cd516       O518   1.998       .  S
O517        C527   1.269       .  A
O518       Cd519   1.992       .  S
Cd519       O521   2.108       .  S
O520        C527   1.279       .  A
C522        O526   1.251       .  A
C522        C548   1.453       .  S
C523        C569   1.470       .  S
C525        C545   1.453       .  S
O526      Zn1985   1.857       .  S
C528        O529   1.284       .  A
O530        C546   1.262       .  A
O530       Zn536   1.963       .  S
C531        O547   1.266       .  A
C531        O544   1.280       .  A
O532        C545   1.293       .  A
O532       Cd539   2.172       .  S
O533        C551   1.269       .  A
O533       Cd542   2.029       .  S
O534        C548   1.279       .  A
O534       Cd538   2.081       .  S
O535        C546   1.285       .  A
O535       Cd538   2.136       .  S
Zn536       O547   1.987       .  S
Zn536       O549   1.857       .  S
Zn536       O541   1.913       .  S
O537        C548   1.273       .  A
O537       Cd542   2.054       .  S
Cd538       O540   2.049       .  S
Cd538       O541   1.988       .  S
Cd539       O543   2.096       .  S
Cd539       O552   2.166       .  S
Cd539       O541   1.998       .  S
O540        C550   1.269       .  A
O541       Cd542   1.992       .  S
Cd542       O544   2.108       .  S
O543        C550   1.279       .  A
C545        O549   1.251       .  A
C546        C592   1.470       .  S
C551        O552   1.284       .  A
O553        C569   1.263       .  A
O553       Zn559   1.964       .  S
C554        O570   1.266       .  A
C554       O2039   1.280   1_445  A
C554        C600   1.467       .  S
O555        C568   1.293       .  A
O555       Cd562   2.172       .  S
O556        C574   1.269       .  A
O556       Cd565   2.029       .  S
O557        C571   1.279   1_545  A
O557       Cd561   2.081       .  S
O558       C2041   1.285       .  A
O558       Cd561   2.136       .  S
Zn559       O570   1.987       .  S
Zn559       O572   1.857       .  S
Zn559       O564   1.914   1_545  S
O560        C571   1.273       .  A
O560       Cd565   2.054       .  S
Cd561       O563   2.049       .  S
Cd561      O2036   1.988   1_545  S
Cd562       O566   2.096       .  S
Cd562       O575   2.166   1_455  S
Cd562       O564   1.999       .  S
O563        C573   1.269       .  A
O564      Cd2033   1.988   1_465  S
O564      Cd2037   1.992   1_455  S
Cd565       O567   2.108       .  S
Cd565      O2036   1.992       .  S
O566       C2045   1.279   1_565  A
O567       C2026   1.280   1_565  A
C568        O572   1.251   1_565  A
C568        C594   1.453       .  S
C569       O2030   1.285   1_455  A
C571        C591   1.453       .  S
C573       O2038   1.279   1_545  A
C573       C1839   1.472       .  S
C574       O2047   1.284       .  A
C574        C689   1.491       .  S
O575       C2046   1.284       .  A
O576        C592   1.262       .  A
O576       Zn582   1.964       .  S
C577        O593   1.266       .  A
C577        O590   1.280   1_545  A
C577        C623   1.467       .  S
O578        C591   1.293       .  A
O578       Cd585   2.172       .  S
O579        C597   1.269       .  A
O579       Cd588   2.029       .  S
O580        C594   1.279   1_545  A
O580       Cd584   2.081       .  S
O581        C592   1.285       .  A
O581       Cd584   2.136       .  S
Zn582       O593   1.987       .  S
Zn582       O595   1.857       .  S
Zn582       O587   1.914   1_545  S
O583        C594   1.273       .  A
O583       Cd588   2.054       .  S
Cd584       O586   2.049       .  S
Cd584       O587   1.988   1_545  S
Cd585       O589   2.096       .  S
Cd585       O598   2.166       .  S
Cd585       O587   1.999       .  S
O586        C596   1.269       .  A
O587       Cd588   1.992       .  S
Cd588       O590   2.108       .  S
O589        C596   1.279   1_565  A
C591        O595   1.251   1_565  A
C597        O598   1.284       .  A
C597        C666   1.491       .  S
O599        C615   1.262       .  A
O599       Zn605   1.963       .  S
C600        O616   1.266       .  A
C600        O613   1.280   1_545  A
O601        C614   1.293       .  A
O601      Cd2080   2.172       .  S
O602        C620   1.269       .  A
O602       Cd611   2.029       .  S
O603        C617   1.279   1_545  A
O603       Cd607   2.081       .  S
O604        C615   1.285       .  A
O604       Cd607   2.136       .  S
Zn605       O616   1.987       .  S
Zn605      O2090   1.857   1_455  S
Zn605       O610   1.913   1_545  S
O606        C617   1.273       .  A
O606       Cd611   2.054       .  S
Cd607       O609   2.049       .  S
Cd607       O610   1.988   1_545  S
Cd608       O612   2.096       .  S
Cd608       O621   2.166       .  S
Cd608      O2073   2.172   1_455  S
Cd608       O610   1.998       .  S
O609        C619   1.270       .  A
O610       Cd611   1.992       .  S
Cd611       O613   2.108       .  S
O612        C619   1.279   1_565  A
C614        O618   1.251   1_565  A
C614        C640   1.453       .  S
C617        C637   1.453       .  S
O618      Zn2077   1.857       .  S
C619       C1080   1.471       .  S
C620        O621   1.284       .  A
C620        C712   1.491       .  S
O622        C638   1.262       .  A
O622       Zn628   1.963       .  S
C623        O639   1.266       .  A
C623        O636   1.280   1_545  A
O624        C637   1.293       .  A
O624       Cd631   2.172       .  S
O625        C643   1.269       .  A
O625       Cd634   2.029       .  S
O626        C640   1.279   1_545  A
O626       Cd630   2.081       .  S
O627        C638   1.285       .  A
O627       Cd630   2.136       .  S
Zn628       O639   1.987       .  S
Zn628       O641   1.857       .  S
Zn628       O633   1.913   1_545  S
O629        C640   1.273       .  A
O629       Cd634   2.054       .  S
Cd630       O632   2.049       .  S
Cd630       O633   1.988   1_545  S
Cd631       O635   2.096       .  S
Cd631       O644   2.166       .  S
Cd631       O633   1.998       .  S
O632        C642   1.270       .  A
O633       Cd634   1.992       .  S
Cd634       O636   2.108       .  S
O635        C642   1.279   1_565  A
C637        O641   1.251   1_565  A
C642       C1103   1.471       .  S
C643        O644   1.284       .  A
C643        C735   1.491       .  S
O645        C661   1.262       .  A
O645       Zn651   1.963       .  S
C646        O662   1.266       .  A
C646        O659   1.280       .  A
C646        C692   1.467       .  S
O647        C660   1.293       .  A
O647       Cd654   2.172       .  S
O648        C666   1.269       .  A
O648       Cd657   2.029       .  S
O649        C663   1.279       .  A
O649       Cd653   2.081       .  S
O650        C661   1.285       .  A
O650       Cd653   2.136       .  S
Zn651       O662   1.987       .  S
Zn651       O664   1.857       .  S
Zn651       O656   1.913       .  S
O652        C663   1.273       .  A
O652       Cd657   2.054       .  S
Cd653       O655   2.049       .  S
Cd653       O656   1.988       .  S
Cd654       O658   2.096       .  S
Cd654       O667   2.166       .  S
Cd654       O656   1.998       .  S
O655        C665   1.269       .  A
O656       Cd657   1.992       .  S
Cd657       O659   2.108       .  S
O658        C665   1.279       .  A
C660        O664   1.251       .  A
C660        C686   1.453       .  S
C663        C683   1.453       .  S
C666        O667   1.284       .  A
O668        C684   1.262       .  A
O668       Zn674   1.963       .  S
C669        O685   1.266       .  A
C669        O682   1.280       .  A
C669        C715   1.467       .  S
O670        C683   1.293       .  A
O670       Cd677   2.172       .  S
O671        C689   1.269       .  A
O671       Cd680   2.029       .  S
O672        C686   1.279       .  A
O672      Cd2148   2.081   1_455  S
O673        C684   1.285       .  A
O673       Cd676   2.136       .  S
Zn674       O685   1.987       .  S
Zn674       O687   1.857       .  S
Zn674       O679   1.913       .  S
O675        C686   1.273       .  A
O675      Cd2152   2.054   1_455  S
Cd676       O678   2.049       .  S
Cd676      O2144   2.081       .  S
Cd676       O679   1.988       .  S
Cd677       O681   2.096       .  S
Cd677       O690   2.166       .  S
Cd677       O679   1.998       .  S
O678        C688   1.269       .  A
O679       Cd680   1.992       .  S
Cd680       O682   2.108       .  S
Cd680      O2147   2.054       .  S
O681        C688   1.279       .  A
C683        O687   1.251       .  A
C689        O690   1.284       .  A
O691        C707   1.262       .  A
O691       Zn697   1.963       .  S
C692        O708   1.266       .  A
C692        O705   1.280       .  A
O693        C706   1.293       .  A
O693       Cd700   2.172       .  S
O694        C712   1.269       .  A
O694       Cd703   2.029       .  S
O695        C709   1.279       .  A
O695       Cd699   2.081       .  S
O696        C707   1.285       .  A
O696       Cd699   2.136       .  S
Zn697       O708   1.987       .  S
Zn697       O710   1.857       .  S
Zn697       O702   1.914       .  S
O698        C709   1.273       .  A
O698       Cd703   2.054       .  S
Cd699       O701   2.049       .  S
Cd699       O702   1.988       .  S
Cd700       O704   2.096       .  S
Cd700       O713   2.166       .  S
Cd700       O702   1.999       .  S
O701        C711   1.269       .  A
O702       Cd703   1.992       .  S
Cd703       O705   2.108       .  S
O704        C711   1.279       .  A
C706        O710   1.251       .  A
C706        C732   1.453       .  S
C709       C2201   1.453   1_455  S
C711        C896   1.471       .  S
C712        O713   1.284       .  A
O714        C730   1.262       .  A
O714       Zn720   1.963       .  S
C715        O731   1.266       .  A
C715        O728   1.280       .  A
O716        C729   1.293       .  A
O716       Cd723   2.172       .  S
O717        C735   1.269       .  A
O717       Cd726   2.029       .  S
O718        C732   1.279       .  A
O718       Cd722   2.081       .  S
O719        C730   1.285       .  A
O719       Cd722   2.136       .  S
Zn720       O731   1.987       .  S
Zn720       O733   1.857       .  S
Zn720       O725   1.914       .  S
O721        C732   1.273       .  A
O721       Cd726   2.054       .  S
Cd722       O724   2.049       .  S
Cd722       O725   1.988       .  S
Cd723       O727   2.096       .  S
Cd723       O736   2.166       .  S
Cd723       O725   1.999       .  S
O724        C734   1.269       .  A
O725       Cd726   1.992       .  S
Cd726       O728   2.108       .  S
O727        C734   1.279       .  A
C729        O733   1.251       .  A
C729       C2181   1.453       .  S
C734        C919   1.471       .  S
C735        O736   1.284       .  A
O737        C753   1.266       .  A
O737       Zn743   1.987       .  S
C738        O754   1.262       .  A
C738        O751   1.285       .  A
C738        C922   1.470       .  S
O739        C752   1.293       .  A
O739       Cd746   2.172       .  S
O740        C758   1.269       .  A
O740       Cd749   2.049       .  S
O741        C755   1.273       .  A
O741       Cd745   2.054       .  S
O742        C753   1.280       .  A
O742       Cd745   2.108       .  S
Zn743       O754   1.963       .  S
Zn743       O756   1.857       .  S
Zn743       O748   1.914       .  S
O744        C755   1.279       .  A
O744       Cd749   2.081       .  S
Cd745       O747   2.029       .  S
Cd745       O748   1.992       .  S
Cd746       O750   2.166       .  S
Cd746       O759   2.096       .  S
Cd746       O748   1.998       .  S
O747        C757   1.269       .  A
O748       Cd749   1.988       .  S
Cd749       O751   2.136       .  S
O750        C757   1.284       .  A
C752        O756   1.251       .  A
C752        C778   1.453       .  S
C753        C799   1.467       .  S
C755        C775   1.453       .  S
C757        C872   1.491       .  S
C758        O759   1.279       .  A
C758       C1194   1.472   1_556  S
O760        C776   1.266       .  A
O760       Zn766   1.987       .  S
C761        O777   1.262       .  A
C761       O2246   1.285       .  A
C761        C945   1.470       .  S
O762        C775   1.293       .  A
O762       Cd769   2.172       .  S
O763        C781   1.269   1_455  A
O763       Cd772   2.049       .  S
O764        C778   1.273       .  A
O764       Cd768   2.054       .  S
O765       C2248   1.280   1_455  A
O765       Cd768   2.108       .  S
Zn766       O777   1.963       .  S
Zn766       O779   1.857       .  S
Zn766       O771   1.914       .  S
O767        C778   1.279       .  A
O767       Cd772   2.081       .  S
Cd768       O770   2.029       .  S
Cd768      O2243   1.992   1_455  S
Cd769       O773   2.166       .  S
Cd769       O782   2.096       .  S
Cd769       O771   1.998       .  S
O770        C780   1.269       .  A
O771      Cd2240   1.992       .  S
O771      Cd2244   1.988       .  S
Cd772       O774   2.136       .  S
Cd772      O2243   1.988   1_455  S
O773       C2252   1.284       .  A
O774       C2233   1.285   1_455  A
C775        O779   1.251       .  A
C776       O2237   1.280       .  A
C776        C822   1.467       .  S
C780       O2245   1.284       .  A
C780        C849   1.491       .  S
C781       O2254   1.279       .  A
C781       C2643   1.472   1_656  S
O782       C2253   1.279       .  A
O783        C799   1.266       .  A
O783       Zn789   1.987       .  S
C784        O800   1.262       .  A
C784        O797   1.285       .  A
C784        C968   1.470       .  S
O785        C798   1.293       .  A
O785       Cd792   2.172       .  S
O786        C804   1.269       .  A
O786       Cd795   2.049       .  S
O787        C801   1.273       .  A
O787       Cd791   2.054       .  S
O788        C799   1.280       .  A
O788       Cd791   2.108       .  S
Zn789       O800   1.963       .  S
Zn789       O802   1.857       .  S
Zn789       O794   1.913       .  S
O790        C801   1.279       .  A
O790       Cd795   2.081       .  S
Cd791       O793   2.029       .  S
Cd791       O794   1.992       .  S
Cd792       O796   2.166       .  S
Cd792       O805   2.096       .  S
Cd792       O794   1.998       .  S
O793        C803   1.269       .  A
O794       Cd795   1.988       .  S
Cd795       O797   2.136       .  S
O796        C803   1.284       .  A
C798        O802   1.251       .  A
C798        C824   1.453       .  S
C801        C821   1.453       .  S
C803        C895   1.491       .  S
C804        O805   1.279       .  A
O806        C822   1.266       .  A
O806       Zn812   1.987       .  S
C807        O823   1.262       .  A
C807        O820   1.285       .  A
C807        C991   1.470       .  S
O808        C821   1.293       .  A
O808      Cd2287   2.172   1_455  S
O809        C827   1.269       .  A
O809       Cd818   2.049       .  S
O810        C824   1.273       .  A
O810       Cd814   2.054       .  S
O811        C822   1.280       .  A
O811       Cd814   2.108       .  S
Zn812       O823   1.963       .  S
Zn812      O2297   1.857       .  S
Zn812       O817   1.913       .  S
O813        C824   1.279       .  A
O813       Cd818   2.081       .  S
Cd814       O816   2.029       .  S
Cd814       O817   1.992       .  S
Cd815       O819   2.166       .  S
Cd815       O828   2.096       .  S
Cd815      O2280   2.172       .  S
Cd815       O817   1.998       .  S
O816        C826   1.269       .  A
O817       Cd818   1.988       .  S
Cd818       O820   2.136       .  S
O819        C826   1.284       .  A
C821        O825   1.251       .  A
O825      Zn2284   1.857   1_455  S
C826        C918   1.491       .  S
C827        O828   1.279       .  A
O829        C845   1.266       .  A
O829       Zn835   1.987       .  S
C830        O846   1.262       .  A
C830        O843   1.285       .  A
C830       C1014   1.470       .  S
O831        C844   1.293       .  A
O831       Cd838   2.172       .  S
O832        C850   1.269       .  A
O832       Cd841   2.049       .  S
O833        C847   1.273       .  A
O833      Cd2309   2.054       .  S
O834        C845   1.280       .  A
O834       Cd837   2.108       .  S
Zn835       O846   1.963       .  S
Zn835       O848   1.857       .  S
Zn835       O840   1.913       .  S
O836        C847   1.279       .  A
O836      Cd2313   2.081       .  S
Cd837       O839   2.029       .  S
Cd837      O2305   2.054   1_455  S
Cd837       O840   1.992       .  S
Cd838       O842   2.166       .  S
Cd838       O851   2.096       .  S
Cd838       O840   1.999       .  S
O839        C849   1.269       .  A
O840       Cd841   1.988       .  S
Cd841       O843   2.136       .  S
Cd841      O2308   2.081   1_455  S
O842        C849   1.284       .  A
C844        O848   1.251       .  A
C844        C870   1.453       .  S
C845        C891   1.467       .  S
C847        C867   1.453       .  S
C850        O851   1.279       .  A
C850       C1447   1.471   1_556  S
O852        C868   1.266       .  A
O852       Zn858   1.987       .  S
C853        O869   1.262       .  A
C853        O866   1.285       .  A
C853       C1037   1.470       .  S
O854        C867   1.293       .  A
O854       Cd861   2.172       .  S
O855        C873   1.269       .  A
O855       Cd864   2.049       .  S
O856        C870   1.273       .  A
O856       Cd860   2.054       .  S
O857        C868   1.280       .  A
O857       Cd860   2.108       .  S
Zn858       O869   1.963       .  S
Zn858       O871   1.857       .  S
Zn858       O863   1.913       .  S
O859        C870   1.279       .  A
O859       Cd864   2.081       .  S
Cd860       O862   2.029       .  S
Cd860       O863   1.992       .  S
Cd861       O865   2.166       .  S
Cd861       O874   2.096       .  S
Cd861       O863   1.998       .  S
O862        C872   1.269       .  A
O863       Cd864   1.988       .  S
Cd864       O866   2.136       .  S
O865        C872   1.284       .  A
C867        O871   1.251       .  A
C868        C914   1.467       .  S
C873        O874   1.279       .  A
C873       C1470   1.471   1_556  S
O875        C891   1.266       .  A
O875       Zn881   1.987       .  S
C876        O892   1.262       .  A
C876        O889   1.285       .  A
C876       C1060   1.470       .  S
O877        C890   1.293       .  A
O877       Cd884   2.172       .  S
O878        C896   1.269       .  A
O878       Cd887   2.049       .  S
O879        C893   1.273       .  A
O879       Cd883   2.054       .  S
O880        C891   1.280       .  A
O880       Cd883   2.108       .  S
Zn881       O892   1.963       .  S
Zn881       O894   1.857       .  S
Zn881       O886   1.914       .  S
O882        C893   1.279       .  A
O882       Cd887   2.081       .  S
Cd883       O885   2.029       .  S
Cd883       O886   1.992       .  S
Cd884       O888   2.166       .  S
Cd884       O897   2.096       .  S
Cd884       O886   1.998       .  S
O885        C895   1.269       .  A
O886       Cd887   1.988       .  S
Cd887       O889   2.136       .  S
O888        C895   1.284       .  A
C890        O894   1.251       .  A
C890       C2388   1.453   1_455  S
C893        C913   1.453       .  S
C896        O897   1.279       .  A
O898        C914   1.266       .  A
O898       Zn904   1.987       .  S
C899        O915   1.262       .  A
C899        O912   1.285       .  A
C899       C1083   1.470       .  S
O900        C913   1.293       .  A
O900       Cd907   2.172       .  S
O901        C919   1.269       .  A
O901       Cd910   2.049       .  S
O902        C916   1.273       .  A
O902       Cd906   2.054       .  S
O903        C914   1.280       .  A
O903       Cd906   2.108       .  S
Zn904       O915   1.963       .  S
Zn904       O917   1.857       .  S
Zn904       O909   1.914       .  S
O905        C916   1.279       .  A
O905       Cd910   2.081       .  S
Cd906       O908   2.029       .  S
Cd906       O909   1.992       .  S
Cd907       O911   2.166       .  S
Cd907       O920   2.096       .  S
Cd907       O909   1.999       .  S
O908        C918   1.269       .  A
O909       Cd910   1.988       .  S
Cd910       O912   2.136       .  S
O911        C918   1.284       .  A
C913        O917   1.251       .  A
C916       C2362   1.453       .  S
C919        O920   1.279       .  A
O921        C937   1.266       .  A
O921       Zn927   1.987       .  S
C922        O938   1.262       .  A
C922        O935   1.285       .  A
O923        C936   1.293       .  A
O923       Cd930   2.172       .  S
O924        C942   1.269       .  A
O924       Cd933   2.049       .  S
O925        C939   1.273       .  A
O925       Cd929   2.054       .  S
O926        C937   1.280       .  A
O926       Cd929   2.108       .  S
Zn927       O938   1.963       .  S
Zn927       O940   1.857       .  S
Zn927       O932   1.913       .  S
O928        C939   1.279       .  A
O928       Cd933   2.081       .  S
Cd929       O931   2.029       .  S
Cd929       O932   1.992       .  S
Cd930       O934   2.166       .  S
Cd930       O943   2.096       .  S
Cd930       O932   1.998       .  S
O931        C941   1.269       .  A
O932       Cd933   1.988       .  S
Cd933       O935   2.136       .  S
O934        C941   1.284       .  A
C936        O940   1.251       .  A
C936        C962   1.453       .  S
C937        C983   1.467       .  S
C939        C959   1.453       .  S
C941       C1033   1.491       .  S
C942        O943   1.279       .  A
C942       C1263   1.471   1_556  S
O944        C960   1.266       .  A
O944       Zn950   1.987       .  S
C945        O961   1.262       .  A
C945        O958   1.285       .  A
O946        C959   1.293       .  A
O946      Cd2425   2.172   1_455  S
O947        C965   1.269       .  A
O947       Cd956   2.049       .  S
O948        C962   1.273       .  A
O948       Cd952   2.054       .  S
O949        C960   1.280       .  A
O949       Cd952   2.108       .  S
Zn950       O961   1.963       .  S
Zn950      O2435   1.857       .  S
Zn950       O955   1.913       .  S
O951        C962   1.279       .  A
O951       Cd956   2.081       .  S
Cd952       O954   2.029       .  S
Cd952       O955   1.992       .  S
Cd953       O957   2.166       .  S
Cd953       O966   2.096       .  S
Cd953      O2418   2.172       .  S
Cd953       O955   1.998       .  S
O954        C964   1.269       .  A
O955       Cd956   1.988       .  S
Cd956       O958   2.136       .  S
O957        C964   1.284       .  A
C959        O963   1.251       .  A
C960       C1006   1.467       .  S
O963      Zn2422   1.857   1_455  S
C964       C1056   1.491       .  S
C965        O966   1.279       .  A
C965       C1286   1.471   1_556  S
O967        C983   1.266       .  A
O967       Zn973   1.987       .  S
C968        O984   1.262       .  A
C968        O981   1.285       .  A
O969        C982   1.293       .  A
O969       Cd976   2.172       .  S
O970        C988   1.269       .  A
O970       Cd979   2.049       .  S
O971        C985   1.273       .  A
O971       Cd975   2.054       .  S
O972        C983   1.280       .  A
O972       Cd975   2.108       .  S
Zn973       O984   1.964       .  S
Zn973       O986   1.857       .  S
Zn973       O978   1.914       .  S
O974        C985   1.279       .  A
O974       Cd979   2.081       .  S
Cd975       O977   2.029       .  S
Cd975       O978   1.992       .  S
Cd976       O980   2.166       .  S
Cd976       O989   2.096       .  S
Cd976       O978   1.999       .  S
O977        C987   1.269       .  A
O978       Cd979   1.988       .  S
Cd979       O981   2.136       .  S
O980        C987   1.284       .  A
C982        O986   1.251       .  A
C982       C1008   1.453       .  S
C985       C1005   1.453       .  S
C987       C1102   1.491       .  S
C988        O989   1.279       .  A
O990       C1006   1.266       .  A
O990       Zn996   1.987       .  S
C991       O1007   1.262       .  A
C991       O2476   1.285       .  A
O992       C1005   1.293       .  A
O992       Cd999   2.172       .  S
O993       C1011   1.269   1_455  A
O993      Cd1002   2.049       .  S
O994       C1008   1.273       .  A
O994       Cd998   2.054       .  S
O995       C2478   1.280   1_455  A
O995       Cd998   2.108       .  S
Zn996      O1007   1.964       .  S
Zn996      O1009   1.857       .  S
Zn996      O1001   1.913       .  S
O997       C1008   1.279       .  A
O997      Cd1002   2.081       .  S
Cd998      O1000   2.029       .  S
Cd998      O2473   1.992   1_455  S
Cd999      O1003   2.166       .  S
Cd999      O1012   2.096       .  S
Cd999      O1001   1.999       .  S
O1000      C1010   1.269       .  A
O1001     Cd2470   1.992       .  S
O1001     Cd2474   1.988       .  S
Cd1002     O1004   2.136       .  S
Cd1002     O2473   1.988   1_455  S
O1003      C2482   1.284       .  A
O1004      C2463   1.285   1_455  A
C1005      O1009   1.251       .  A
C1006      O2467   1.280       .  A
C1010      O2475   1.284       .  A
C1010      C1079   1.491       .  S
C1011      O2484   1.279       .  A
C1011      C1953   1.471   1_655  S
O1012      C2483   1.279       .  A
O1013      C1029   1.266   1_565  A
O1013     Zn1019   1.987       .  S
C1014      O1030   1.262       .  A
C1014      O1027   1.285       .  A
O1015      C1028   1.293       .  A
O1015     Cd1022   2.172       .  S
O1016      C1034   1.269   1_565  A
O1016     Cd1025   2.049       .  S
O1017      C1031   1.273       .  A
O1017     Cd1021   2.054       .  S
O1018      C1029   1.280       .  A
O1018     Cd1021   2.107       .  S
Zn1019     O1030   1.963       .  S
Zn1019     O1032   1.857       .  S
Zn1019     O1024   1.913   1_565  S
O1020      C1031   1.279   1_565  A
O1020     Cd1025   2.081       .  S
Cd1021     O1023   2.029       .  S
Cd1021     O1024   1.992       .  S
Cd1022     O1026   2.166       .  S
Cd1022     O1035   2.096       .  S
Cd1022     O1024   1.998       .  S
O1023      C1033   1.269       .  A
O1024     Cd1025   1.988   1_545  S
Cd1025     O1027   2.136       .  S
O1026      C1033   1.284       .  A
C1028      O1032   1.251   1_545  A
C1028      C2526   1.453   1_455  S
C1029      C1075   1.467       .  S
C1031      C1051   1.453       .  S
C1034      O1035   1.279       .  A
C1034      C1355   1.471   1_556  S
O1036      C1052   1.266   1_565  A
O1036     Zn1042   1.987       .  S
C1037      O1053   1.262       .  A
C1037      O1050   1.285       .  A
O1038      C1051   1.293       .  A
O1038     Cd1045   2.172       .  S
O1039      C1057   1.269   1_565  A
O1039     Cd1048   2.049       .  S
O1040      C1054   1.273       .  A
O1040     Cd1044   2.054       .  S
O1041      C1052   1.280       .  A
O1041     Cd1044   2.107       .  S
Zn1042     O1053   1.963       .  S
Zn1042     O1055   1.857       .  S
Zn1042     O1047   1.913   1_565  S
O1043      C1054   1.279   1_565  A
O1043     Cd1048   2.081       .  S
Cd1044     O1046   2.029       .  S
Cd1044     O1047   1.992       .  S
Cd1045     O1049   2.166       .  S
Cd1045     O1058   2.096       .  S
Cd1045     O1047   1.998       .  S
O1046      C1056   1.269       .  A
O1047     Cd1048   1.988   1_545  S
Cd1048     O1050   2.136       .  S
O1049      C1056   1.284       .  A
C1051      O1055   1.251   1_545  A
C1052      C1098   1.467       .  S
C1054      C2500   1.453       .  S
C1057      O1058   1.279       .  A
C1057      C1378   1.471   1_556  S
O1059      C1075   1.266   1_565  A
O1059     Zn1065   1.987       .  S
C1060      O1076   1.262       .  A
C1060      O1073   1.285       .  A
O1061      C1074   1.293       .  A
O1061     Cd1068   2.172       .  S
O1062      C1080   1.270   1_565  A
O1062     Cd1071   2.049       .  S
O1063      C1077   1.273       .  A
O1063     Cd2539   2.054       .  S
O1064      C1075   1.280       .  A
O1064     Cd1067   2.108       .  S
Zn1065     O1076   1.963       .  S
Zn1065     O1078   1.857       .  S
Zn1065     O1070   1.913   1_565  S
O1066      C1077   1.279   1_565  A
O1066     Cd2543   2.081       .  S
Cd1067     O1069   2.029       .  S
Cd1067     O2535   2.054   1_455  S
Cd1067     O1070   1.992       .  S
Cd1068     O1072   2.166       .  S
Cd1068     O1081   2.096       .  S
Cd1068     O1070   1.998       .  S
O1069      C1079   1.269       .  A
O1070     Cd1071   1.988   1_545  S
Cd1071     O1073   2.136       .  S
Cd1071     O2538   2.081   1_455  S
O1072      C1079   1.284       .  A
C1074      O1078   1.251   1_545  A
C1074      C1100   1.453       .  S
C1077      C1097   1.453       .  S
C1080      O1081   1.279       .  A
O1082      C1098   1.266   1_565  A
O1082     Zn1088   1.987       .  S
C1083      O1099   1.262       .  A
C1083      O1096   1.285       .  A
O1084      C1097   1.293       .  A
O1084     Cd1091   2.172       .  S
O1085      C1103   1.270   1_565  A
O1085     Cd1094   2.049       .  S
O1086      C1100   1.273       .  A
O1086     Cd1090   2.054       .  S
O1087      C1098   1.280       .  A
O1087     Cd1090   2.108       .  S
Zn1088     O1099   1.963       .  S
Zn1088     O1101   1.857       .  S
Zn1088     O1093   1.913   1_565  S
O1089      C1100   1.279   1_565  A
O1089     Cd1094   2.081       .  S
Cd1090     O1092   2.029       .  S
Cd1090     O1093   1.992       .  S
Cd1091     O1095   2.166       .  S
Cd1091     O1104   2.096       .  S
Cd1091     O1093   1.998       .  S
O1092      C1102   1.269       .  A
O1093     Cd1094   1.988   1_545  S
Cd1094     O1096   2.136       .  S
O1095      C1102   1.284       .  A
C1097      O1101   1.251   1_545  A
C1103      O1104   1.279       .  A
O1105      C1121   1.262       .  A
O1105     Zn1111   1.963       .  S
C1106      O1122   1.266       .  A
C1106      O1119   1.280       .  A
C1106      C1152   1.467       .  S
O1107      C1120   1.293       .  A
O1107     Cd2586   2.172       .  S
O1108      C1126   1.269       .  A
O1108     Cd1117   2.029       .  S
O1109      C1123   1.279       .  A
O1109     Cd1113   2.081       .  S
O1110      C1121   1.285       .  A
O1110     Cd1113   2.136       .  S
Zn1111     O1122   1.987       .  S
Zn1111     O2596   1.857   1_455  S
Zn1111     O1116   1.913       .  S
O1112      C1123   1.273       .  A
O1112     Cd1117   2.054       .  S
Cd1113     O1115   2.049       .  S
Cd1113     O1116   1.988       .  S
Cd1114     O1118   2.096       .  S
Cd1114     O1127   2.166       .  S
Cd1114     O2579   2.172   1_455  S
Cd1114     O1116   1.999       .  S
O1115      C1125   1.269       .  A
O1116     Cd1117   1.992       .  S
Cd1117     O1119   2.108       .  S
O1118      C1125   1.279       .  A
C1120      O1124   1.251       .  A
C1120      C1146   1.453       .  S
C1121      C1397   1.470       .  S
C1123      C1143   1.453       .  S
O1124     Zn2583   1.857       .  S
C1126      O1127   1.284       .  A
C1126      C1218   1.491       .  S
O1128      C1144   1.262       .  A
O1128     Zn1134   1.964       .  S
C1129      O1145   1.266       .  A
C1129      O1142   1.280       .  A
C1129      C1175   1.467       .  S
O1130      C1143   1.293       .  A
O1130     Cd1137   2.172       .  S
O1131      C1149   1.269       .  A
O1131     Cd1140   2.029       .  S
O1132      C1146   1.279       .  A
O1132     Cd1136   2.081       .  S
O1133      C1144   1.285       .  A
O1133     Cd1136   2.136       .  S
Zn1134     O1145   1.987       .  S
Zn1134     O1147   1.857       .  S
Zn1134     O1139   1.913       .  S
O1135      C1146   1.273       .  A
O1135     Cd1140   2.054       .  S
Cd1136     O1138   2.049       .  S
Cd1136     O1139   1.988       .  S
Cd1137     O1141   2.096       .  S
Cd1137     O1150   2.166       .  S
Cd1137     O1139   1.998       .  S
O1138      C1148   1.269       .  A
O1139     Cd1140   1.992       .  S
Cd1140     O1142   2.108       .  S
O1141      C1148   1.279       .  A
C1143      O1147   1.251       .  A
C1144      C1420   1.470       .  S
C1149      O1150   1.284       .  A
C1149      C1241   1.491       .  S
O1151      C1167   1.262       .  A
O1151     Zn1157   1.963       .  S
C1152      O1168   1.266       .  A
C1152      O2637   1.280   1_455  A
O1153      C1166   1.293       .  A
O1153     Cd1160   2.172       .  S
O1154      C1172   1.269       .  A
O1154     Cd1163   2.029       .  S
O1155      C1169   1.279       .  A
O1155     Cd1159   2.081       .  S
O1156      C2639   1.285       .  A
O1156     Cd1159   2.136       .  S
Zn1157     O1168   1.987       .  S
Zn1157     O1170   1.857       .  S
Zn1157     O1162   1.913       .  S
O1158      C1169   1.273       .  A
O1158     Cd1163   2.054       .  S
Cd1159     O1161   2.049       .  S
Cd1159     O2634   1.988       .  S
Cd1160     O1164   2.096       .  S
Cd1160     O1173   2.166   1_455  S
Cd1160     O1162   1.998       .  S
O1161      C1171   1.269       .  A
O1162     Cd2631   1.988   1_455  S
O1162     Cd2635   1.992   1_455  S
Cd1163     O1165   2.108       .  S
Cd1163     O2634   1.992       .  S
O1164      C2643   1.279       .  A
O1165      C2624   1.280       .  A
C1166      O1170   1.251       .  A
C1166      C1192   1.453       .  S
C1167      O2628   1.285   1_455  A
C1167      C1443   1.470       .  S
C1169      C1189   1.453       .  S
C1171      O2636   1.279       .  A
C1171      C2253   1.472   1_554  S
C1172      O2645   1.284       .  A
C1172      C1287   1.491       .  S
O1173      C2644   1.284       .  A
O1174      C1190   1.262       .  A
O1174     Zn1180   1.963       .  S
C1175      O1191   1.266       .  A
C1175      O1188   1.280       .  A
O1176      C1189   1.293       .  A
O1176     Cd1183   2.172       .  S
O1177      C1195   1.269       .  A
O1177     Cd1186   2.029       .  S
O1178      C1192   1.279       .  A
O1178     Cd1182   2.081       .  S
O1179      C1190   1.285       .  A
O1179     Cd1182   2.136       .  S
Zn1180     O1191   1.987       .  S
Zn1180     O1193   1.857       .  S
Zn1180     O1185   1.913       .  S
O1181      C1192   1.273       .  A
O1181     Cd1186   2.054       .  S
Cd1182     O1184   2.049       .  S
Cd1182     O1185   1.988       .  S
Cd1183     O1187   2.096       .  S
Cd1183     O1196   2.166       .  S
Cd1183     O1185   1.998       .  S
O1184      C1194   1.269       .  A
O1185     Cd1186   1.992       .  S
Cd1186     O1188   2.108       .  S
O1187      C1194   1.279       .  A
C1189      O1193   1.251       .  A
C1190      C1466   1.470       .  S
C1195      O1196   1.284       .  A
C1195      C1264   1.491       .  S
O1197      C1213   1.262       .  A
O1197     Zn1203   1.963       .  S
C1198      O1214   1.266       .  A
C1198      O1211   1.280       .  A
C1198      C1244   1.467       .  S
O1199      C1212   1.293       .  A
O1199     Cd1206   2.172       .  S
O1200      C1218   1.269       .  A
O1200     Cd1209   2.029       .  S
O1201      C1215   1.279       .  A
O1201     Cd1205   2.081       .  S
O1202      C1213   1.285       .  A
O1202     Cd1205   2.136       .  S
Zn1203     O1214   1.987       .  S
Zn1203     O1216   1.857       .  S
Zn1203     O1208   1.913       .  S
O1204      C1215   1.273       .  A
O1204     Cd1209   2.054       .  S
Cd1205     O1207   2.049       .  S
Cd1205     O1208   1.988       .  S
Cd1206     O1210   2.096       .  S
Cd1206     O1219   2.166       .  S
Cd1206     O1208   1.998       .  S
O1207      C1217   1.270       .  A
O1208     Cd1209   1.992       .  S
Cd1209     O1211   2.108       .  S
O1210      C1217   1.279       .  A
C1212      O1216   1.251       .  A
C1212      C1238   1.453       .  S
C1213      C1305   1.470       .  S
C1215      C2707   1.453   1_455  S
C1218      O1219   1.284       .  A
O1220      C1236   1.262       .  A
O1220     Zn1226   1.963       .  S
C1221      O1237   1.266       .  A
C1221      O1234   1.280       .  A
C1221      C1267   1.467       .  S
O1222      C1235   1.293       .  A
O1222     Cd1229   2.172       .  S
O1223      C1241   1.269       .  A
O1223     Cd1232   2.029       .  S
O1224      C1238   1.279       .  A
O1224     Cd1228   2.081       .  S
O1225      C1236   1.285       .  A
O1225     Cd1228   2.136       .  S
Zn1226     O1237   1.987       .  S
Zn1226     O1239   1.857       .  S
Zn1226     O1231   1.913       .  S
O1227      C1238   1.273       .  A
O1227     Cd1232   2.054       .  S
Cd1228     O1230   2.049       .  S
Cd1228     O1231   1.988       .  S
Cd1229     O1233   2.096       .  S
Cd1229     O1242   2.166       .  S
Cd1229     O1231   1.998       .  S
O1230      C1240   1.270       .  A
O1231     Cd1232   1.992       .  S
Cd1232     O1234   2.108       .  S
O1233      C1240   1.279       .  A
C1235      O1239   1.251       .  A
C1235      C2687   1.453       .  S
C1236      C1328   1.470       .  S
C1241      O1242   1.284       .  A
O1243      C1259   1.262       .  A
O1243     Zn1249   1.963       .  S
C1244      O1260   1.266       .  A
C1244      O1257   1.280       .  A
O1245      C1258   1.293       .  A
O1245     Cd1252   2.172       .  S
O1246      C1264   1.269       .  A
O1246     Cd1255   2.029       .  S
O1247      C1261   1.279       .  A
O1247     Cd1251   2.081       .  S
O1248      C1259   1.285       .  A
O1248     Cd1251   2.136       .  S
Zn1249     O1260   1.987       .  S
Zn1249     O1262   1.857       .  S
Zn1249     O1254   1.914       .  S
O1250      C1261   1.273       .  A
O1250     Cd1255   2.054       .  S
Cd1251     O1253   2.049       .  S
Cd1251     O1254   1.988       .  S
Cd1252     O1256   2.096       .  S
Cd1252     O1265   2.166       .  S
Cd1252     O1254   1.998       .  S
O1253      C1263   1.269       .  A
O1254     Cd1255   1.992       .  S
Cd1255     O1257   2.108       .  S
O1256      C1263   1.279       .  A
C1258      O1262   1.251       .  A
C1258      C1284   1.453       .  S
C1259      C1351   1.470       .  S
C1261      C1281   1.453       .  S
C1264      O1265   1.284       .  A
O1266      C1282   1.262       .  A
O1266     Zn1272   1.963       .  S
C1267      O1283   1.266       .  A
C1267      O1280   1.280       .  A
O1268      C1281   1.293       .  A
O1268     Cd1275   2.172       .  S
O1269      C1287   1.269       .  A
O1269     Cd1278   2.029       .  S
O1270      C1284   1.279       .  A
O1270     Cd2746   2.081   1_455  S
O1271      C1282   1.285       .  A
O1271     Cd1274   2.136       .  S
Zn1272     O1283   1.987       .  S
Zn1272     O1285   1.857       .  S
Zn1272     O1277   1.914       .  S
O1273      C1284   1.273       .  A
O1273     Cd2750   2.054   1_455  S
Cd1274     O1276   2.049       .  S
Cd1274     O2742   2.081       .  S
Cd1274     O1277   1.988       .  S
Cd1275     O1279   2.096       .  S
Cd1275     O1288   2.166       .  S
Cd1275     O1277   1.998       .  S
O1276      C1286   1.269       .  A
O1277     Cd1278   1.992       .  S
Cd1278     O1280   2.108       .  S
Cd1278     O2745   2.054       .  S
O1279      C1286   1.279       .  A
C1281      O1285   1.251       .  A
C1282      C1374   1.470       .  S
C1287      O1288   1.284       .  A
O1289      C1305   1.262       .  A
O1289     Zn1295   1.964       .  S
C1290      O1306   1.266       .  A
C1290      O1303   1.280   1_545  A
C1290      C1336   1.467       .  S
O1291      C1304   1.293       .  A
O1291     Cd1298   2.172       .  S
O1292      C1310   1.269       .  A
O1292     Cd1301   2.029       .  S
O1293      C1307   1.279   1_545  A
O1293     Cd1297   2.081       .  S
O1294      C1305   1.285       .  A
O1294     Cd1297   2.136       .  S
Zn1295     O1306   1.987       .  S
Zn1295     O1308   1.857       .  S
Zn1295     O1300   1.914   1_545  S
O1296      C1307   1.273       .  A
O1296     Cd1301   2.054       .  S
Cd1297     O1299   2.049       .  S
Cd1297     O1300   1.988   1_545  S
Cd1298     O1302   2.096       .  S
Cd1298     O1311   2.166       .  S
Cd1298     O1300   1.999       .  S
O1299      C1309   1.269       .  A
O1300     Cd1301   1.992       .  S
Cd1301     O1303   2.108       .  S
O1302      C1309   1.279   1_565  A
C1304      O1308   1.251   1_565  A
C1304      C1330   1.453       .  S
C1307      C1327   1.453       .  S
C1310      O1311   1.284       .  A
C1310      C1425   1.491       .  S
O1312      C1328   1.263       .  A
O1312     Zn1318   1.964       .  S
C1313      O1329   1.266       .  A
C1313      O1326   1.280   1_545  A
C1313      C1359   1.467       .  S
O1314      C1327   1.293       .  A
O1314     Cd1321   2.172       .  S
O1315      C1333   1.269       .  A
O1315     Cd1324   2.029       .  S
O1316      C1330   1.279   1_545  A
O1316     Cd2792   2.081   1_455  S
O1317      C1328   1.285       .  A
O1317     Cd1320   2.136       .  S
Zn1318     O1329   1.987       .  S
Zn1318     O1331   1.857       .  S
Zn1318     O1323   1.914   1_545  S
O1319      C1330   1.273       .  A
O1319     Cd2796   2.054   1_455  S
Cd1320     O1322   2.049       .  S
Cd1320     O2788   2.081       .  S
Cd1320     O1323   1.988   1_545  S
Cd1321     O1325   2.096       .  S
Cd1321     O1334   2.166       .  S
Cd1321     O1323   1.999       .  S
O1322      C1332   1.269       .  A
O1323     Cd1324   1.992       .  S
Cd1324     O1326   2.108       .  S
Cd1324     O2791   2.054       .  S
O1325      C1332   1.279   1_565  A
C1327      O1331   1.251   1_565  A
C1333      O1334   1.284       .  A
C1333      C1402   1.491       .  S
O1335      C1351   1.262       .  A
O1335     Zn1341   1.963       .  S
C1336      O1352   1.266       .  A
C1336      O1349   1.280   1_545  A
O1337      C1350   1.293       .  A
O1337     Cd1344   2.172       .  S
O1338      C1356   1.269       .  A
O1338     Cd1347   2.029       .  S
O1339      C1353   1.279   1_545  A
O1339     Cd1343   2.081       .  S
O1340      C1351   1.285       .  A
O1340     Cd1343   2.136       .  S
Zn1341     O1352   1.987       .  S
Zn1341     O1354   1.857       .  S
Zn1341     O1346   1.913   1_545  S
O1342      C1353   1.273       .  A
O1342     Cd1347   2.054       .  S
Cd1343     O1345   2.049       .  S
Cd1343     O1346   1.988   1_545  S
Cd1344     O1348   2.096       .  S
Cd1344     O1357   2.166       .  S
Cd1344     O1346   1.998       .  S
O1345      C1355   1.269       .  A
O1346     Cd1347   1.992       .  S
Cd1347     O1349   2.108       .  S
O1348      C1355   1.279   1_565  A
C1350      O1354   1.251   1_565  A
C1350      C1376   1.453       .  S
C1353      C2845   1.453   1_455  S
C1356      O1357   1.284       .  A
C1356      C1448   1.491       .  S
O1358      C1374   1.262       .  A
O1358     Zn1364   1.963       .  S
C1359      O1375   1.266       .  A
C1359      O1372   1.280   1_545  A
O1360      C1373   1.293       .  A
O1360     Cd1367   2.172       .  S
O1361      C1379   1.269       .  A
O1361     Cd1370   2.029       .  S
O1362      C1376   1.279   1_545  A
O1362     Cd1366   2.081       .  S
O1363      C1374   1.285       .  A
O1363     Cd1366   2.136       .  S
Zn1364     O1375   1.987       .  S
Zn1364     O1377   1.856       .  S
Zn1364     O1369   1.913   1_545  S
O1365      C1376   1.273       .  A
O1365     Cd1370   2.054       .  S
Cd1366     O1368   2.049       .  S
Cd1366     O1369   1.988   1_545  S
Cd1367     O1371   2.096       .  S
Cd1367     O1380   2.166       .  S
Cd1367     O1369   1.998       .  S
O1368      C1378   1.269       .  A
O1369     Cd1370   1.992       .  S
Cd1370     O1372   2.108       .  S
O1371      C1378   1.279   1_565  A
C1373      O1377   1.251   1_565  A
C1373      C2825   1.453       .  S
C1379      O1380   1.284       .  A
C1379      C1471   1.491       .  S
O1381      C1397   1.262       .  A
O1381     Zn1387   1.963       .  S
C1382      O1398   1.266       .  A
C1382      O2867   1.280   1_455  A
C1382      C1428   1.467       .  S
O1383      C1396   1.293       .  A
O1383     Cd1390   2.172       .  S
O1384      C1402   1.269       .  A
O1384     Cd1393   2.029       .  S
O1385      C1399   1.279       .  A
O1385     Cd1389   2.081       .  S
O1386      C2869   1.285       .  A
O1386     Cd1389   2.136       .  S
Zn1387     O1398   1.987       .  S
Zn1387     O1400   1.857       .  S
Zn1387     O1392   1.913       .  S
O1388      C1399   1.273       .  A
O1388     Cd1393   2.054       .  S
Cd1389     O1391   2.049       .  S
Cd1389     O2864   1.988       .  S
Cd1390     O1394   2.096       .  S
Cd1390     O1403   2.166   1_455  S
Cd1390     O1392   1.998       .  S
O1391      C1401   1.270       .  A
O1392     Cd2861   1.988   1_455  S
O1392     Cd2865   1.992   1_455  S
Cd1393     O1395   2.108       .  S
Cd1393     O2864   1.992       .  S
O1394      C2873   1.279       .  A
O1395      C2854   1.280       .  A
C1396      O1400   1.251       .  A
C1396      C1422   1.453       .  S
C1397      O2858   1.285   1_455  A
C1399      C1419   1.453       .  S
C1401      O2866   1.279       .  A
C1401      C1609   1.471       .  S
C1402      O2875   1.284       .  A
O1403      C2874   1.284       .  A
O1404      C1420   1.262       .  A
O1404     Zn1410   1.963       .  S
C1405      O1421   1.266       .  A
C1405      O1418   1.280       .  A
C1405      C1451   1.467       .  S
O1406      C1419   1.293       .  A
O1406     Cd1413   2.172       .  S
O1407      C1425   1.269       .  A
O1407     Cd1416   2.029       .  S
O1408      C1422   1.279       .  A
O1408     Cd1412   2.081       .  S
O1409      C1420   1.285       .  A
O1409     Cd1412   2.136       .  S
Zn1410     O1421   1.987       .  S
Zn1410     O1423   1.857       .  S
Zn1410     O1415   1.913       .  S
O1411      C1422   1.273       .  A
O1411     Cd1416   2.054       .  S
Cd1412     O1414   2.049       .  S
Cd1412     O1415   1.988       .  S
Cd1413     O1417   2.096       .  S
Cd1413     O1426   2.166       .  S
Cd1413     O1415   1.998       .  S
O1414      C1424   1.270       .  A
O1415     Cd1416   1.992       .  S
Cd1416     O1418   2.108       .  S
O1417      C1424   1.279       .  A
C1419      O1423   1.251       .  A
C1425      O1426   1.284       .  A
O1427      C1443   1.262       .  A
O1427     Zn1433   1.963       .  S
C1428      O1444   1.266       .  A
C1428      O1441   1.280       .  A
O1429      C1442   1.293       .  A
O1429     Cd2908   2.172       .  S
O1430      C1448   1.269       .  A
O1430     Cd1439   2.029       .  S
O1431      C1445   1.279       .  A
O1431     Cd1435   2.081       .  S
O1432      C1443   1.285       .  A
O1432     Cd1435   2.136       .  S
Zn1433     O1444   1.987       .  S
Zn1433     O2918   1.857   1_455  S
Zn1433     O1438   1.914       .  S
O1434      C1445   1.273       .  A
O1434     Cd1439   2.054       .  S
Cd1435     O1437   2.049       .  S
Cd1435     O1438   1.988       .  S
Cd1436     O1440   2.096       .  S
Cd1436     O1449   2.166       .  S
Cd1436     O2901   2.172   1_455  S
Cd1436     O1438   1.998       .  S
O1437      C1447   1.269       .  A
O1438     Cd1439   1.992       .  S
Cd1439     O1441   2.108       .  S
O1440      C1447   1.279       .  A
C1442      O1446   1.251       .  A
C1442      C1468   1.453       .  S
C1445      C1465   1.453       .  S
O1446     Zn2905   1.857       .  S
C1448      O1449   1.284       .  A
O1450      C1466   1.262       .  A
O1450     Zn1456   1.963       .  S
C1451      O1467   1.266       .  A
C1451      O1464   1.280       .  A
O1452      C1465   1.293       .  A
O1452     Cd1459   2.172       .  S
O1453      C1471   1.269       .  A
O1453     Cd1462   2.029       .  S
O1454      C1468   1.279       .  A
O1454     Cd1458   2.081       .  S
O1455      C1466   1.285       .  A
O1455     Cd1458   2.136       .  S
Zn1456     O1467   1.987       .  S
Zn1456     O1469   1.857       .  S
Zn1456     O1461   1.914       .  S
O1457      C1468   1.273       .  A
O1457     Cd1462   2.054       .  S
Cd1458     O1460   2.049       .  S
Cd1458     O1461   1.988       .  S
Cd1459     O1463   2.096       .  S
Cd1459     O1472   2.166       .  S
Cd1459     O1461   1.999       .  S
O1460      C1470   1.269       .  A
O1461     Cd1462   1.992       .  S
Cd1462     O1464   2.108       .  S
O1463      C1470   1.279       .  A
C1465      O1469   1.251       .  A
C1471      O1472   1.284       .  A
O1473      C1489   1.266       .  A
O1473     Zn1479   1.987       .  S
C1474      O1490   1.262       .  A
C1474      O1487   1.285       .  A
C1474      C1658   1.470       .  S
O1475      C1488   1.293       .  A
O1475     Cd1482   2.172       .  S
O1476      C1494   1.269       .  A
O1476     Cd1485   2.049       .  S
O1477      C1491   1.273       .  A
O1478      C1489   1.280       .  A
O1478     Cd1481   2.108       .  S
Zn1479     O1490   1.964       .  S
Zn1479     O1492   1.857       .  S
Zn1479     O1484   1.913       .  S
O1480      C1491   1.279       .  A
Cd1481     O1483   2.029       .  S
Cd1481     O1484   1.992       .  S
Cd1482     O1486   2.166       .  S
Cd1482     O1495   2.096       .  S
Cd1482     O1484   1.998       .  S
O1483      C1493   1.269       .  A
O1484     Cd1485   1.988       .  S
Cd1485     O1487   2.136       .  S
O1486      C1493   1.284       .  A
C1488      O1492   1.251       .  A
C1488      C1514   1.453       .  S
C1489      C1535   1.467       .  S
C1491      C1511   1.453       .  S
C1493      C1608   1.491       .  S
C1494      O1495   1.279       .  A
C1494      C2597   1.471       .  S
O1496      C1512   1.266       .  A
O1496     Zn1502   1.987       .  S
C1497      O1513   1.262       .  A
C1497      O1510   1.285       .  A
C1497      C1681   1.470       .  S
O1498      C1511   1.293       .  A
O1498     Cd1505   2.172       .  S
O1499      C1517   1.269       .  A
O1499     Cd1508   2.049       .  S
O1500      C1514   1.273       .  A
O1500     Cd1504   2.054       .  S
O1501      C1512   1.280       .  A
O1501     Cd1504   2.108       .  S
Zn1502     O1513   1.964       .  S
Zn1502     O1515   1.857       .  S
Zn1502     O1507   1.913       .  S
O1503      C1514   1.279       .  A
O1503     Cd1508   2.081       .  S
Cd1504     O1506   2.029       .  S
Cd1504     O1507   1.992       .  S
Cd1505     O1509   2.166       .  S
Cd1505     O1518   2.096       .  S
Cd1505     O1507   1.999       .  S
O1506      C1516   1.269       .  A
O1507     Cd1508   1.988       .  S
Cd1508     O1510   2.136       .  S
O1509      C1516   1.284       .  A
C1511      O1515   1.251       .  A
C1512      C1558   1.467       .  S
C1516      C1585   1.491       .  S
C1517      O1518   1.279       .  A
C1517      C2620   1.471       .  S
O1519      C1535   1.266       .  A
O1519     Zn1525   1.987       .  S
C1520      O1536   1.262       .  A
C1520      O1533   1.285       .  A
C1520      C1704   1.470       .  S
O1521      C1534   1.293       .  A
O1521     Cd1528   2.172       .  S
O1522      C1540   1.269       .  A
O1522     Cd1531   2.049       .  S
O1523      C1537   1.273       .  A
O1523     Cd1527   2.054       .  S
O1524      C1535   1.280       .  A
O1524     Cd1527   2.108       .  S
Zn1525     O1536   1.963       .  S
Zn1525     O1538   1.857       .  S
Zn1525     O1530   1.913       .  S
O1526      C1537   1.279       .  A
O1526     Cd1531   2.081       .  S
Cd1527     O1529   2.029       .  S
Cd1527     O1530   1.992       .  S
Cd1528     O1532   2.166       .  S
Cd1528     O1541   2.096       .  S
Cd1528     O1530   1.998       .  S
O1529      C1539   1.269       .  A
O1530     Cd1531   1.988       .  S
Cd1531     O1533   2.136       .  S
O1532      C1539   1.284       .  A
C1534      O1538   1.251       .  A
C1537      C1557   1.453       .  S
C1539      C1631   1.491       .  S
C1540      O1541   1.279       .  A
C1540      C1861   1.471       .  S
O1542      C1558   1.266       .  A
O1542     Zn1548   1.987       .  S
C1543      O1559   1.262       .  A
C1543      O1556   1.285       .  A
C1543      C1727   1.470       .  S
O1544      C1557   1.293       .  A
O1544     Cd1551   2.172       .  S
O1545      C1563   1.269       .  A
O1545     Cd1554   2.049       .  S
O1546      C1560   1.273       .  A
O1546     Cd1550   2.054       .  S
O1547      C1558   1.280       .  A
O1547     Cd1550   2.108       .  S
Zn1548     O1559   1.963       .  S
Zn1548     O1561   1.857       .  S
Zn1548     O1553   1.913       .  S
O1549      C1560   1.279       .  A
O1549     Cd1554   2.081       .  S
Cd1550     O1552   2.029       .  S
Cd1550     O1553   1.992       .  S
Cd1551     O1555   2.166       .  S
Cd1551     O1564   2.096       .  S
Cd1551     O1553   1.998       .  S
O1552      C1562   1.269       .  A
O1553     Cd1554   1.988       .  S
Cd1554     O1556   2.136       .  S
O1555      C1562   1.284       .  A
C1557      O1561   1.251       .  A
C1562      C1654   1.491       .  S
C1563      O1564   1.279       .  A
C1563      C1884   1.471       .  S
O1565      C1581   1.266       .  A
O1565     Zn1571   1.987       .  S
C1566      O1582   1.262       .  A
C1566      O1579   1.285       .  A
C1566      C1750   1.470       .  S
O1567      C1580   1.293       .  A
O1567     Cd1574   2.172       .  S
O1568      C1586   1.270       .  A
O1568     Cd1577   2.049       .  S
O1569      C1583   1.273       .  A
O1569     Cd1573   2.054       .  S
O1570      C1581   1.280       .  A
O1570     Cd1573   2.108       .  S
Zn1571     O1582   1.963       .  S
Zn1571     O1584   1.857       .  S
Zn1571     O1576   1.913       .  S
O1572      C1583   1.279       .  A
O1572     Cd1577   2.081       .  S
Cd1573     O1575   2.029       .  S
Cd1573     O1576   1.992       .  S
Cd1574     O1578   2.166       .  S
Cd1574     O1587   2.096       .  S
Cd1574     O1576   1.998       .  S
O1575      C1585   1.269       .  A
O1576     Cd1577   1.988       .  S
Cd1577     O1579   2.136       .  S
O1578      C1585   1.284       .  A
C1580      O1584   1.251       .  A
C1580      C1606   1.453       .  S
C1581      C1627   1.467       .  S
C1583      C1603   1.453       .  S
C1586      O1587   1.279       .  A
C1586      C2896   1.471       .  S
O1588      C1604   1.266       .  A
O1588     Zn1594   1.987       .  S
C1589      O1605   1.262       .  A
C1589      C1773   1.470       .  S
O1590      C1603   1.293       .  A
O1590     Cd1597   2.172       .  S
O1591      C1609   1.270       .  A
O1591     Cd1600   2.049       .  S
O1592      C1606   1.273       .  A
O1592     Cd1596   2.054       .  S
O1593     Cd1596   2.108       .  S
Zn1594     O1605   1.963       .  S
Zn1594     O1607   1.857       .  S
Zn1594     O1599   1.914       .  S
O1595      C1606   1.279       .  A
O1595     Cd1600   2.081       .  S
Cd1596     O1598   2.029       .  S
Cd1597     O1601   2.166   1_655  S
Cd1597     O1610   2.096       .  S
Cd1597     O1599   1.998       .  S
O1598      C1608   1.269       .  A
Cd1600     O1602   2.136       .  S
C1603      O1607   1.251       .  A
C1604      C1650   1.467       .  S
O1611      C1627   1.266       .  A
O1611     Zn1617   1.987       .  S
C1612      O1628   1.262       .  A
C1612      O1625   1.285       .  A
C1612      C1796   1.470       .  S
O1613      C1626   1.293       .  A
O1613     Cd1620   2.172       .  S
O1614      C1632   1.269       .  A
O1614     Cd1623   2.049       .  S
O1615      C1629   1.273       .  A
O1615     Cd1619   2.054       .  S
O1616      C1627   1.280       .  A
O1616     Cd1619   2.108       .  S
Zn1617     O1628   1.963       .  S
Zn1617     O1630   1.857       .  S
Zn1617     O1622   1.913       .  S
O1618      C1629   1.279       .  A
O1618     Cd1623   2.081       .  S
Cd1619     O1621   2.029       .  S
Cd1619     O1622   1.992       .  S
Cd1620     O1624   2.166       .  S
Cd1620     O1633   2.096       .  S
Cd1620     O1622   1.998       .  S
O1621      C1631   1.269       .  A
O1622     Cd1623   1.988       .  S
Cd1623     O1625   2.136       .  S
O1624      C1631   1.284       .  A
C1626      O1630   1.251       .  A
C1626      C1652   1.453       .  S
C1629      C1649   1.453       .  S
C1632      O1633   1.279       .  A
C1632      C2137   1.471       .  S
O1634      C1650   1.266       .  A
O1634     Zn1640   1.987       .  S
C1635      O1651   1.262       .  A
C1635      O1648   1.285       .  A
C1635      C1819   1.470       .  S
O1636      C1649   1.293       .  A
O1637      C1655   1.269       .  A
O1637     Cd1646   2.049       .  S
O1638      C1652   1.273       .  A
O1638     Cd1642   2.054       .  S
O1639      C1650   1.280       .  A
O1639     Cd1642   2.108       .  S
Zn1640     O1651   1.963       .  S
Zn1640     O1645   1.913       .  S
O1641      C1652   1.279       .  A
O1641     Cd1646   2.081       .  S
Cd1642     O1644   2.029       .  S
Cd1642     O1645   1.992       .  S
Cd1643     O1647   2.166       .  S
Cd1643     O1656   2.096       .  S
Cd1643     O1645   1.998       .  S
O1644      C1654   1.269       .  A
O1645     Cd1646   1.988       .  S
Cd1646     O1648   2.136       .  S
O1647      C1654   1.284       .  A
C1649      O1653   1.251       .  A
C1655      O1656   1.279       .  A
C1655      C2160   1.471       .  S
O1657      C1673   1.266       .  A
O1657     Zn1663   1.987       .  S
C1658      O1674   1.262       .  A
C1658      O1671   1.285       .  A
O1659      C1672   1.293       .  A
O1659     Cd1666   2.172       .  S
O1660      C1678   1.270       .  A
O1660     Cd1669   2.049       .  S
O1661      C1675   1.273       .  A
O1661     Cd1665   2.054       .  S
O1662      C1673   1.280       .  A
O1662     Cd1665   2.108       .  S
Zn1663     O1674   1.963       .  S
Zn1663     O1676   1.857       .  S
Zn1663     O1668   1.913       .  S
O1664      C1675   1.279       .  A
O1664     Cd1669   2.081       .  S
Cd1665     O1667   2.029       .  S
Cd1665     O1668   1.992       .  S
Cd1666     O1670   2.166       .  S
Cd1666     O1679   2.096       .  S
Cd1666     O1668   1.998       .  S
O1667      C1677   1.269       .  A
O1668     Cd1669   1.988       .  S
Cd1669     O1671   2.136       .  S
O1670      C1677   1.284       .  A
C1672      O1676   1.251       .  A
C1673      C1719   1.467       .  S
C1675      C1695   1.453       .  S
C1677      C1769   1.491       .  S
C1678      O1679   1.279       .  A
C1678      C2689   1.471       .  S
O1680      C1696   1.266       .  A
O1680     Zn1686   1.987       .  S
C1681      O1697   1.262       .  A
C1681      O1694   1.285       .  A
O1682      C1695   1.293       .  A
O1682     Cd1689   2.172       .  S
O1683      C1701   1.270       .  A
O1683     Cd1692   2.049       .  S
O1684      C1698   1.273       .  A
O1684     Cd1688   2.054       .  S
O1685      C1696   1.280       .  A
O1685     Cd1688   2.108       .  S
Zn1686     O1697   1.963       .  S
Zn1686     O1699   1.857       .  S
Zn1686     O1691   1.913       .  S
O1687      C1698   1.279       .  A
O1687     Cd1692   2.081       .  S
Cd1688     O1690   2.029       .  S
Cd1688     O1691   1.992       .  S
Cd1689     O1693   2.166       .  S
Cd1689     O1702   2.095       .  S
Cd1689     O1691   1.998       .  S
O1690      C1700   1.269       .  A
O1691     Cd1692   1.988       .  S
Cd1692     O1694   2.136       .  S
O1693      C1700   1.284       .  A
C1695      O1699   1.251       .  A
C1696      C1742   1.467       .  S
C1700      C1792   1.491       .  S
C1701      O1702   1.279       .  A
C1701      C2712   1.471       .  S
O1703      C1719   1.266       .  A
O1703     Zn1709   1.987       .  S
C1704      O1720   1.262       .  A
C1704      O1717   1.285       .  A
O1705      C1718   1.293       .  A
O1705     Cd1712   2.172       .  S
O1706      C1724   1.269       .  A
O1706     Cd1715   2.049       .  S
O1707      C1721   1.273       .  A
O1708      C1719   1.280       .  A
O1708     Cd1711   2.107       .  S
Zn1709     O1720   1.963       .  S
Zn1709     O1722   1.857       .  S
Zn1709     O1714   1.914       .  S
O1710      C1721   1.279       .  A
Cd1711     O1713   2.029       .  S
Cd1711     O1714   1.992       .  S
Cd1712     O1716   2.166       .  S
Cd1712     O1725   2.096       .  S
Cd1712     O1714   1.998       .  S
O1713      C1723   1.269       .  A
O1714     Cd1715   1.988       .  S
Cd1715     O1717   2.136       .  S
O1716      C1723   1.284       .  A
C1718      O1722   1.251       .  A
C1718      C1744   1.453       .  S
C1721      C1741   1.453       .  S
C1723      C1838   1.491       .  S
C1724      O1725   1.279       .  A
C1724      C1999   1.471       .  S
O1726      C1742   1.266       .  A
O1726     Zn1732   1.987       .  S
C1727      O1743   1.262       .  A
C1727      O1740   1.285       .  A
O1728      C1741   1.293       .  A
O1728     Cd1735   2.172       .  S
O1729      C1747   1.269       .  A
O1729     Cd1738   2.049       .  S
O1730      C1744   1.273       .  A
O1730     Cd1734   2.054       .  S
O1731      C1742   1.280       .  A
O1731     Cd1734   2.107       .  S
Zn1732     O1743   1.963       .  S
Zn1732     O1745   1.857       .  S
Zn1732     O1737   1.914       .  S
O1733      C1744   1.279       .  A
O1733     Cd1738   2.081       .  S
Cd1734     O1736   2.029       .  S
Cd1734     O1737   1.992       .  S
Cd1735     O1739   2.166       .  S
Cd1735     O1748   2.096       .  S
Cd1735     O1737   1.998       .  S
O1736      C1746   1.269       .  A
O1737     Cd1738   1.988       .  S
Cd1738     O1740   2.136       .  S
O1739      C1746   1.284       .  A
C1741      O1745   1.251       .  A
C1746      C1815   1.491       .  S
C1747      O1748   1.279       .  A
C1747      C2022   1.471       .  S
O1749      C1765   1.266   1_565  A
O1749     Zn1755   1.987       .  S
C1750      O1766   1.262       .  A
C1750      O1763   1.285       .  A
O1751      C1764   1.293       .  A
O1751     Cd1758   2.172       .  S
O1752      C1770   1.269   1_565  A
O1752     Cd1761   2.049       .  S
O1753      C1767   1.273       .  A
O1753     Cd1757   2.054       .  S
O1754      C1765   1.280       .  A
O1754     Cd1757   2.108       .  S
Zn1755     O1766   1.963       .  S
Zn1755     O1768   1.857       .  S
Zn1755     O1760   1.913   1_565  S
O1756      C1767   1.279   1_565  A
O1756     Cd1761   2.081       .  S
Cd1757     O1759   2.029       .  S
Cd1757     O1760   1.992       .  S
Cd1758     O1762   2.166       .  S
Cd1758     O1771   2.096       .  S
Cd1758     O1760   1.999       .  S
O1759      C1769   1.269       .  A
O1760     Cd1761   1.988   1_545  S
Cd1761     O1763   2.136       .  S
O1762      C1769   1.284       .  A
C1764      O1768   1.251   1_545  A
C1764      C1790   1.453       .  S
C1765      C1811   1.467       .  S
C1767      C1787   1.453       .  S
C1770      O1771   1.279       .  A
C1770      C2781   1.472       .  S
O1772      C1788   1.266   1_565  A
O1772     Zn1778   1.987       .  S
C1773      O1789   1.262       .  A
C1773      O1786   1.285       .  A
O1774      C1787   1.293       .  A
O1775      C1793   1.269   1_565  A
O1775     Cd1784   2.049       .  S
O1776      C1790   1.273       .  A
O1776     Cd1780   2.054       .  S
O1777      C1788   1.280       .  A
O1777     Cd1780   2.108       .  S
Zn1778     O1789   1.963       .  S
Zn1778     O1783   1.914   1_565  S
O1779      C1790   1.279   1_565  A
O1779     Cd1784   2.081       .  S
Cd1780     O1782   2.029       .  S
Cd1780     O1783   1.992       .  S
Cd1781     O1785   2.166       .  S
Cd1781     O1794   2.096       .  S
Cd1781     O1783   1.999       .  S
O1782      C1792   1.269       .  A
O1783     Cd1784   1.988   1_545  S
Cd1784     O1786   2.136       .  S
O1785      C1792   1.284       .  A
C1787      O1791   1.251   1_545  A
C1788      C1834   1.467       .  S
C1793      O1794   1.279       .  A
C1793      C2804   1.472       .  S
O1795      C1811   1.266   1_565  A
O1795     Zn1801   1.987       .  S
C1796      O1812   1.262       .  A
C1796      O1809   1.285       .  A
O1797      C1810   1.293       .  A
O1797     Cd1804   2.172       .  S
O1798      C1816   1.269   1_565  A
O1798     Cd1807   2.049       .  S
O1799      C1813   1.273       .  A
O1799     Cd1803   2.054       .  S
O1800      C1811   1.280       .  A
O1800     Cd1803   2.108       .  S
Zn1801     O1812   1.963       .  S
Zn1801     O1814   1.857       .  S
Zn1801     O1806   1.913   1_565  S
O1802      C1813   1.279   1_565  A
O1802     Cd1807   2.081       .  S
Cd1803     O1805   2.029       .  S
Cd1803     O1806   1.992       .  S
Cd1804     O1808   2.166       .  S
Cd1804     O1817   2.096       .  S
Cd1804     O1806   1.999       .  S
O1805      C1815   1.269       .  A
O1806     Cd1807   1.988   1_545  S
Cd1807     O1809   2.136       .  S
O1808      C1815   1.284       .  A
C1810      O1814   1.251   1_545  A
C1810      C1836   1.453       .  S
C1813      C1833   1.453       .  S
C1816      O1817   1.279       .  A
C1816      C2068   1.472       .  S
O1818      C1834   1.266   1_565  A
O1818     Zn1824   1.987       .  S
C1819      O1835   1.262       .  A
O1820      C1833   1.293       .  A
O1820     Cd1827   2.172       .  S
O1821      C1839   1.269   1_565  A
O1821     Cd1830   2.049       .  S
O1822      C1836   1.273       .  A
O1822     Cd1826   2.054       .  S
O1823     Cd1826   2.108       .  S
Zn1824     O1835   1.963       .  S
Zn1824     O1837   1.857       .  S
Zn1824     O1829   1.914   1_565  S
O1825      C1836   1.279   1_565  A
O1825     Cd1830   2.081       .  S
Cd1826     O1828   2.029       .  S
Cd1827     O1831   2.166   1_655  S
Cd1827     O1840   2.096       .  S
Cd1827     O1829   1.999       .  S
O1828      C1838   1.269       .  A
Cd1830     O1832   2.136       .  S
C1833      O1837   1.251   1_545  A
O1841      C1857   1.262       .  A
O1841     Zn1847   1.964       .  S
C1842      O1858   1.266       .  A
C1842      O1855   1.280       .  A
C1842      C1888   1.467       .  S
O1843      C1856   1.293       .  A
O1843     Cd1850   2.172       .  S
O1844      C1862   1.269       .  A
O1844     Cd1853   2.029       .  S
O1845      C1859   1.279       .  A
O1845     Cd1849   2.081       .  S
O1846      C1857   1.285       .  A
O1846     Cd1849   2.136       .  S
Zn1847     O1858   1.987       .  S
Zn1847     O1860   1.857       .  S
Zn1847     O1852   1.913       .  S
O1848      C1859   1.273       .  A
O1848     Cd1853   2.054       .  S
Cd1849     O1851   2.049       .  S
Cd1849     O1852   1.988       .  S
Cd1850     O1854   2.096       .  S
Cd1850     O1863   2.166       .  S
Cd1850     O1852   1.998       .  S
O1851      C1861   1.269       .  A
O1852     Cd1853   1.992       .  S
Cd1853     O1855   2.107       .  S
O1854      C1861   1.279       .  A
C1856      O1860   1.251       .  A
C1856      C1882   1.453       .  S
C1857      C2133   1.470       .  S
C1862      O1863   1.284       .  A
C1862      C2000   1.491       .  S
O1864      C1880   1.262       .  A
O1864     Zn1870   1.964       .  S
C1865      O1881   1.266       .  A
C1865      O1878   1.280       .  A
C1865      C1911   1.467       .  S
O1866      C1879   1.293       .  A
O1866     Cd1873   2.172       .  S
O1867      C1885   1.269       .  A
O1867     Cd1876   2.029       .  S
O1868      C1882   1.279       .  A
O1868     Cd1872   2.081       .  S
O1869      C1880   1.285       .  A
O1869     Cd1872   2.136       .  S
Zn1870     O1881   1.987       .  S
Zn1870     O1883   1.857       .  S
Zn1870     O1875   1.913       .  S
O1871      C1882   1.273       .  A
O1871     Cd1876   2.054       .  S
Cd1872     O1874   2.049       .  S
Cd1872     O1875   1.988       .  S
Cd1873     O1877   2.096       .  S
Cd1873     O1886   2.166       .  S
Cd1873     O1875   1.998       .  S
O1874      C1884   1.269       .  A
O1875     Cd1876   1.992       .  S
Cd1876     O1878   2.107       .  S
O1877      C1884   1.279       .  A
C1879      O1883   1.251       .  A
C1880      C2156   1.470       .  S
C1885      O1886   1.284       .  A
C1885      C2023   1.491       .  S
O1887      C1903   1.262       .  A
O1887     Zn1893   1.963       .  S
C1888      O1904   1.266       .  A
C1888      O1901   1.280       .  A
O1889      C1902   1.293       .  A
O1889     Cd1896   2.172       .  S
O1890      C1908   1.269       .  A
O1890     Cd1899   2.029       .  S
O1891      C1905   1.279       .  A
O1891     Cd1895   2.081       .  S
O1892      C1903   1.285       .  A
O1892     Cd1895   2.136       .  S
Zn1893     O1904   1.987       .  S
Zn1893     O1906   1.857       .  S
Zn1893     O1898   1.913       .  S
O1894      C1905   1.273       .  A
O1894     Cd1899   2.054       .  S
Cd1895     O1897   2.049       .  S
Cd1895     O1898   1.988       .  S
Cd1896     O1900   2.096       .  S
Cd1896     O1909   2.166       .  S
Cd1896     O1898   1.998       .  S
O1897      C1907   1.269       .  A
O1898     Cd1899   1.992       .  S
Cd1899     O1901   2.108       .  S
O1900      C1907   1.279       .  A
C1902      O1906   1.251       .  A
C1902      C1928   1.453       .  S
C1903      C2179   1.470       .  S
C1905      C1925   1.453       .  S
C1907      C2276   1.471       .  S
C1908      O1909   1.284       .  A
C1908      C1977   1.491       .  S
O1910      C1926   1.262       .  A
O1910     Zn1916   1.963       .  S
C1911      O1927   1.266       .  A
C1911      O1924   1.280       .  A
O1912      C1925   1.293       .  A
O1912     Cd1919   2.172       .  S
O1913      C1931   1.269       .  A
O1913     Cd1922   2.029       .  S
O1914      C1928   1.279       .  A
O1915      C1926   1.285       .  A
O1915     Cd1918   2.136       .  S
Zn1916     O1927   1.987       .  S
Zn1916     O1929   1.857       .  S
Zn1916     O1921   1.913       .  S
O1917      C1928   1.273       .  A
Cd1918     O1920   2.049       .  S
Cd1918     O1921   1.988       .  S
Cd1919     O1923   2.096       .  S
Cd1919     O1932   2.166       .  S
Cd1919     O1921   1.998       .  S
O1920      C1930   1.269       .  A
O1921     Cd1922   1.992       .  S
Cd1922     O1924   2.108       .  S
O1923      C1930   1.279       .  A
C1925      O1929   1.251       .  A
C1926      C2202   1.470       .  S
C1930      C2299   1.471       .  S
C1931      O1932   1.284       .  A
C1931      C1954   1.491       .  S
O1933      C1949   1.263       .  A
O1933     Zn1939   1.964       .  S
C1934      O1950   1.266       .  A
C1934      C1980   1.467       .  S
O1935      C1948   1.293       .  A
O1935     Cd1942   2.172       .  S
O1936      C1954   1.269       .  A
O1936     Cd1945   2.029       .  S
O1937      C1951   1.279       .  A
O1937     Cd1941   2.081       .  S
O1938     Cd1941   2.136       .  S
Zn1939     O1950   1.987       .  S
Zn1939     O1952   1.857       .  S
Zn1939     O1944   1.913       .  S
O1940      C1951   1.273       .  A
O1940     Cd1945   2.054       .  S
Cd1941     O1943   2.049       .  S
Cd1942     O1946   2.096       .  S
Cd1942     O1955   2.166       .  S
Cd1942     O1944   1.999       .  S
O1943      C1953   1.269   1_655  A
Cd1945     O1947   2.108       .  S
C1948      O1952   1.251       .  A
C1948      C1974   1.453       .  S
C1949      C2087   1.470       .  S
C1951      C1971   1.453       .  S
O1956      C1972   1.263       .  A
O1956     Zn1962   1.964       .  S
C1957      O1973   1.266       .  A
C1957      O1970   1.280       .  A
C1957      C2003   1.467       .  S
O1958      C1971   1.293       .  A
O1958     Cd1965   2.172       .  S
O1959      C1977   1.269       .  A
O1959     Cd1968   2.029       .  S
O1960      C1974   1.279       .  A
O1960     Cd1964   2.081       .  S
O1961      C1972   1.285       .  A
O1961     Cd1964   2.136       .  S
Zn1962     O1973   1.987       .  S
Zn1962     O1975   1.857       .  S
Zn1962     O1967   1.913       .  S
O1963      C1974   1.273       .  A
O1963     Cd1968   2.054       .  S
Cd1964     O1966   2.049       .  S
Cd1964     O1967   1.988       .  S
Cd1965     O1969   2.096       .  S
Cd1965     O1978   2.166       .  S
Cd1965     O1967   1.998       .  S
O1966      C1976   1.269       .  A
O1967     Cd1968   1.992       .  S
Cd1968     O1970   2.108       .  S
O1969      C1976   1.279       .  A
C1971      O1975   1.251       .  A
C1972      C2110   1.470       .  S
C1976      C2460   1.471       .  S
C1977      O1978   1.284       .  A
O1979      C1995   1.262       .  A
O1979     Zn1985   1.963       .  S
C1980      O1996   1.266       .  A
C1980      O1993   1.280       .  A
O1981      C1994   1.293       .  A
O1982      C2000   1.269       .  A
O1982     Cd1991   2.029       .  S
O1983      C1997   1.279       .  A
O1983     Cd1987   2.081       .  S
O1984      C1995   1.285       .  A
O1984     Cd1987   2.136       .  S
Zn1985     O1996   1.987       .  S
Zn1985     O1990   1.913       .  S
O1986      C1997   1.273       .  A
O1986     Cd1991   2.054       .  S
Cd1987     O1989   2.049       .  S
Cd1987     O1990   1.988       .  S
Cd1988     O1992   2.096       .  S
Cd1988     O2001   2.166       .  S
Cd1988     O1990   1.998       .  S
O1989      C1999   1.269       .  A
O1990     Cd1991   1.992       .  S
Cd1991     O1993   2.108       .  S
O1992      C1999   1.279       .  A
C1994      O1998   1.251       .  A
C1994      C2020   1.453       .  S
C1995      C2041   1.470       .  S
C1997      C2017   1.453       .  S
C2000      O2001   1.284       .  A
O2002      C2018   1.262       .  A
O2002     Zn2008   1.963       .  S
C2003      O2019   1.266       .  A
C2003      O2016   1.280       .  A
O2004      C2017   1.293       .  A
O2004     Cd2011   2.172       .  S
O2005      C2023   1.269       .  A
O2005     Cd2014   2.029       .  S
O2006      C2020   1.279       .  A
O2006     Cd2010   2.081       .  S
O2007      C2018   1.285       .  A
O2007     Cd2010   2.136       .  S
Zn2008     O2019   1.987       .  S
Zn2008     O2021   1.857       .  S
Zn2008     O2013   1.913       .  S
O2009      C2020   1.273       .  A
O2009     Cd2014   2.054       .  S
Cd2010     O2012   2.049       .  S
Cd2010     O2013   1.988       .  S
Cd2011     O2015   2.096       .  S
Cd2011     O2024   2.166       .  S
Cd2011     O2013   1.998       .  S
O2012      C2022   1.269       .  A
O2013     Cd2014   1.992       .  S
Cd2014     O2016   2.108       .  S
O2015      C2022   1.279       .  A
C2017      O2021   1.251       .  A
C2018      C2064   1.470       .  S
C2023      O2024   1.284       .  A
O2025      C2041   1.263       .  A
O2025     Zn2031   1.964       .  S
C2026      O2042   1.266       .  A
C2026      C2072   1.467       .  S
O2027      C2040   1.293       .  A
O2027     Cd2034   2.172       .  S
O2028      C2046   1.269       .  A
O2028     Cd2037   2.029       .  S
O2029      C2043   1.279   1_545  A
O2029     Cd2033   2.081       .  S
O2030     Cd2033   2.136       .  S
Zn2031     O2042   1.987       .  S
Zn2031     O2044   1.857       .  S
Zn2031     O2036   1.914   1_545  S
O2032      C2043   1.273       .  A
O2032     Cd2037   2.054       .  S
Cd2033     O2035   2.049       .  S
Cd2034     O2038   2.096       .  S
Cd2034     O2047   2.166       .  S
Cd2034     O2036   1.999       .  S
O2035      C2045   1.269   1_655  A
Cd2037     O2039   2.108       .  S
C2040      O2044   1.251   1_565  A
C2040      C2066   1.453       .  S
C2043      C2063   1.453       .  S
C2046      C2161   1.491       .  S
O2048      C2064   1.262       .  A
O2048     Zn2054   1.964       .  S
C2049      O2065   1.266       .  A
C2049      O2062   1.280   1_545  A
C2049      C2095   1.467       .  S
O2050      C2063   1.293       .  A
O2050     Cd2057   2.172       .  S
O2051      C2069   1.269       .  A
O2051     Cd2060   2.029       .  S
O2052      C2066   1.279   1_545  A
O2052     Cd2056   2.081       .  S
O2053      C2064   1.285       .  A
O2053     Cd2056   2.136       .  S
Zn2054     O2065   1.987       .  S
Zn2054     O2067   1.857       .  S
Zn2054     O2059   1.914   1_545  S
O2055      C2066   1.273       .  A
O2055     Cd2060   2.054       .  S
Cd2056     O2058   2.049       .  S
Cd2056     O2059   1.988   1_545  S
Cd2057     O2061   2.096       .  S
Cd2057     O2070   2.166       .  S
Cd2057     O2059   1.999       .  S
O2058      C2068   1.269       .  A
O2059     Cd2060   1.992       .  S
Cd2060     O2062   2.108       .  S
O2061      C2068   1.279   1_565  A
C2063      O2067   1.251   1_565  A
C2069      O2070   1.284       .  A
C2069      C2138   1.491       .  S
O2071      C2087   1.262       .  A
O2071     Zn2077   1.963       .  S
C2072      O2088   1.266       .  A
C2072      O2085   1.280   1_545  A
O2073      C2086   1.293       .  A
O2074      C2092   1.269       .  A
O2074     Cd2083   2.029       .  S
O2075      C2089   1.279   1_545  A
O2075     Cd2079   2.081       .  S
O2076      C2087   1.285       .  A
O2076     Cd2079   2.136       .  S
Zn2077     O2088   1.987       .  S
Zn2077     O2082   1.913   1_545  S
O2078      C2089   1.273       .  A
O2078     Cd2083   2.054       .  S
Cd2079     O2081   2.049       .  S
Cd2079     O2082   1.988   1_545  S
Cd2080     O2084   2.096       .  S
Cd2080     O2093   2.166       .  S
Cd2080     O2082   1.998       .  S
O2081      C2091   1.270       .  A
O2082     Cd2083   1.992       .  S
Cd2083     O2085   2.108       .  S
O2084      C2091   1.279   1_565  A
C2086      O2090   1.251   1_565  A
C2086      C2112   1.453       .  S
C2089      C2109   1.453       .  S
C2091      C2552   1.471       .  S
C2092      O2093   1.284       .  A
C2092      C2184   1.491       .  S
O2094      C2110   1.262       .  A
O2094     Zn2100   1.963       .  S
C2095      O2111   1.266       .  A
C2095      O2108   1.280   1_545  A
O2096      C2109   1.293       .  A
O2096     Cd2103   2.172       .  S
O2097      C2115   1.269       .  A
O2097     Cd2106   2.029       .  S
O2098      C2112   1.279   1_545  A
O2098     Cd2102   2.081       .  S
O2099      C2110   1.285       .  A
O2099     Cd2102   2.136       .  S
Zn2100     O2111   1.987       .  S
Zn2100     O2113   1.857       .  S
Zn2100     O2105   1.913   1_545  S
O2101      C2112   1.273       .  A
O2101     Cd2106   2.054       .  S
Cd2102     O2104   2.049       .  S
Cd2102     O2105   1.988   1_545  S
Cd2103     O2107   2.096       .  S
Cd2103     O2116   2.166       .  S
Cd2103     O2105   1.998       .  S
O2104      C2114   1.270       .  A
O2105     Cd2106   1.992       .  S
Cd2106     O2108   2.108       .  S
O2107      C2114   1.279   1_565  A
C2109      O2113   1.251   1_565  A
C2114      C2575   1.471       .  S
C2115      O2116   1.284       .  A
C2115      C2207   1.491       .  S
O2117      C2133   1.262       .  A
O2117     Zn2123   1.963       .  S
C2118      O2134   1.266       .  A
C2118      O2131   1.280       .  A
C2118      C2164   1.467       .  S
O2119      C2132   1.293       .  A
O2119     Cd2126   2.172       .  S
O2120      C2138   1.269       .  A
O2120     Cd2129   2.029       .  S
O2121      C2135   1.279       .  A
O2121     Cd2125   2.081       .  S
O2122      C2133   1.285       .  A
O2122     Cd2125   2.136       .  S
Zn2123     O2134   1.987       .  S
Zn2123     O2136   1.857       .  S
Zn2123     O2128   1.913       .  S
O2124      C2135   1.273       .  A
O2124     Cd2129   2.054       .  S
Cd2125     O2127   2.049       .  S
Cd2125     O2128   1.988       .  S
Cd2126     O2130   2.096       .  S
Cd2126     O2139   2.166       .  S
Cd2126     O2128   1.998       .  S
O2127      C2137   1.269       .  A
O2128     Cd2129   1.992       .  S
Cd2129     O2131   2.108       .  S
O2130      C2137   1.279       .  A
C2132      O2136   1.251       .  A
C2132      C2158   1.453       .  S
C2135      C2155   1.453       .  S
C2138      O2139   1.284       .  A
O2140      C2156   1.262       .  A
O2140     Zn2146   1.963       .  S
C2141      O2157   1.266       .  A
C2141      O2154   1.280       .  A
C2141      C2187   1.467       .  S
O2142      C2155   1.293       .  A
O2142     Cd2149   2.172       .  S
O2143      C2161   1.269       .  A
O2143     Cd2152   2.029       .  S
O2144      C2158   1.279       .  A
O2145      C2156   1.285       .  A
O2145     Cd2148   2.136       .  S
Zn2146     O2157   1.987       .  S
Zn2146     O2159   1.857       .  S
Zn2146     O2151   1.913       .  S
O2147      C2158   1.273       .  A
Cd2148     O2150   2.049       .  S
Cd2148     O2151   1.988       .  S
Cd2149     O2153   2.096       .  S
Cd2149     O2162   2.166       .  S
Cd2149     O2151   1.998       .  S
O2150      C2160   1.269       .  A
O2151     Cd2152   1.992       .  S
Cd2152     O2154   2.108       .  S
O2153      C2160   1.279       .  A
C2155      O2159   1.251       .  A
C2161      O2162   1.284       .  A
O2163      C2179   1.262       .  A
O2163     Zn2169   1.963       .  S
C2164      O2180   1.266       .  A
C2164      O2177   1.280       .  A
O2165      C2178   1.293       .  A
O2165     Cd2172   2.172       .  S
O2166      C2184   1.269       .  A
O2166     Cd2175   2.029       .  S
O2167      C2181   1.279       .  A
O2167     Cd2171   2.081       .  S
O2168      C2179   1.285       .  A
O2168     Cd2171   2.136       .  S
Zn2169     O2180   1.987       .  S
Zn2169     O2182   1.857       .  S
Zn2169     O2174   1.914       .  S
O2170      C2181   1.273       .  A
O2170     Cd2175   2.054       .  S
Cd2171     O2173   2.049       .  S
Cd2171     O2174   1.988       .  S
Cd2172     O2176   2.096       .  S
Cd2172     O2185   2.166       .  S
Cd2172     O2174   1.999       .  S
O2173      C2183   1.269       .  A
O2174     Cd2175   1.992       .  S
Cd2175     O2177   2.108       .  S
O2176      C2183   1.279       .  A
C2178      O2182   1.251       .  A
C2178      C2204   1.453       .  S
C2183      C2368   1.471       .  S
C2184      O2185   1.284       .  A
O2186      C2202   1.262       .  A
O2186     Zn2192   1.963       .  S
C2187      O2203   1.266       .  A
C2187      O2200   1.280       .  A
O2188      C2201   1.293       .  A
O2188     Cd2195   2.172       .  S
O2189      C2207   1.269       .  A
O2189     Cd2198   2.029       .  S
O2190      C2204   1.279       .  A
O2190     Cd2194   2.081       .  S
O2191      C2202   1.285       .  A
O2191     Cd2194   2.136       .  S
Zn2192     O2203   1.987       .  S
Zn2192     O2205   1.857       .  S
Zn2192     O2197   1.914       .  S
O2193      C2204   1.273       .  A
O2193     Cd2198   2.054       .  S
Cd2194     O2196   2.049       .  S
Cd2194     O2197   1.988       .  S
Cd2195     O2199   2.096       .  S
Cd2195     O2208   2.166       .  S
Cd2195     O2197   1.999       .  S
O2196      C2206   1.269       .  A
O2197     Cd2198   1.992       .  S
Cd2198     O2200   2.108       .  S
O2199      C2206   1.279       .  A
C2201      O2205   1.251       .  A
C2206      C2391   1.471       .  S
C2207      O2208   1.284       .  A
O2209      C2225   1.266       .  A
O2209     Zn2215   1.987       .  S
C2210      O2226   1.262       .  A
C2210      O2223   1.285       .  A
C2210      C2394   1.470       .  S
O2211      C2224   1.293       .  A
O2211     Cd2218   2.172       .  S
O2212      C2230   1.269       .  A
O2212     Cd2221   2.049       .  S
O2213      C2227   1.273       .  A
O2213     Cd2217   2.054       .  S
O2214      C2225   1.280       .  A
O2214     Cd2217   2.108       .  S
Zn2215     O2226   1.963       .  S
Zn2215     O2228   1.857       .  S
Zn2215     O2220   1.914       .  S
O2216      C2227   1.279       .  A
O2216     Cd2221   2.081       .  S
Cd2217     O2219   2.029       .  S
Cd2217     O2220   1.992       .  S
Cd2218     O2222   2.166       .  S
Cd2218     O2231   2.096       .  S
Cd2218     O2220   1.998       .  S
O2219      C2229   1.269       .  A
O2220     Cd2221   1.988       .  S
Cd2221     O2223   2.136       .  S
O2222      C2229   1.284       .  A
C2224      O2228   1.251       .  A
C2224      C2250   1.453       .  S
C2225      C2271   1.467       .  S
C2227      C2247   1.453       .  S
C2229      C2344   1.491       .  S
C2230      O2231   1.279       .  A
C2230      C2666   1.472   1_556  S
O2232      C2248   1.266       .  A
O2232     Zn2238   1.987       .  S
C2233      O2249   1.262       .  A
C2233      C2417   1.470       .  S
O2234      C2247   1.293       .  A
O2234     Cd2241   2.172       .  S
O2235      C2253   1.269       .  A
O2235     Cd2244   2.049       .  S
O2236      C2250   1.273       .  A
O2236     Cd2240   2.054       .  S
O2237     Cd2240   2.108       .  S
Zn2238     O2249   1.963       .  S
Zn2238     O2251   1.857       .  S
Zn2238     O2243   1.914       .  S
O2239      C2250   1.279       .  A
O2239     Cd2244   2.081       .  S
Cd2240     O2242   2.029       .  S
Cd2241     O2245   2.166   1_655  S
Cd2241     O2254   2.096       .  S
Cd2241     O2243   1.998       .  S
O2242      C2252   1.269       .  A
Cd2244     O2246   2.136       .  S
C2247      O2251   1.251       .  A
C2248      C2294   1.467       .  S
C2252      C2321   1.491       .  S
O2255      C2271   1.266       .  A
O2255     Zn2261   1.987       .  S
C2256      O2272   1.262       .  A
C2256      O2269   1.285       .  A
C2256      C2440   1.470       .  S
O2257      C2270   1.293       .  A
O2257     Cd2264   2.172       .  S
O2258      C2276   1.269       .  A
O2258     Cd2267   2.049       .  S
O2259      C2273   1.273       .  A
O2259     Cd2263   2.054       .  S
O2260      C2271   1.280       .  A
O2260     Cd2263   2.108       .  S
Zn2261     O2272   1.963       .  S
Zn2261     O2274   1.857       .  S
Zn2261     O2266   1.913       .  S
O2262      C2273   1.279       .  A
O2262     Cd2267   2.081       .  S
Cd2263     O2265   2.029       .  S
Cd2263     O2266   1.992       .  S
Cd2264     O2268   2.166       .  S
Cd2264     O2277   2.096       .  S
Cd2264     O2266   1.998       .  S
O2265      C2275   1.269       .  A
O2266     Cd2267   1.988       .  S
Cd2267     O2269   2.136       .  S
O2268      C2275   1.284       .  A
C2270      O2274   1.251       .  A
C2270      C2296   1.453       .  S
C2273      C2293   1.453       .  S
C2275      C2367   1.491       .  S
C2276      O2277   1.279       .  A
O2278      C2294   1.266       .  A
O2278     Zn2284   1.987       .  S
C2279      O2295   1.262       .  A
C2279      O2292   1.285       .  A
C2279      C2463   1.470       .  S
O2280      C2293   1.293       .  A
O2281      C2299   1.269       .  A
O2281     Cd2290   2.049       .  S
O2282      C2296   1.273       .  A
O2282     Cd2286   2.054       .  S
O2283      C2294   1.280       .  A
O2283     Cd2286   2.108       .  S
Zn2284     O2295   1.963       .  S
Zn2284     O2289   1.913       .  S
O2285      C2296   1.279       .  A
O2285     Cd2290   2.081       .  S
Cd2286     O2288   2.029       .  S
Cd2286     O2289   1.992       .  S
Cd2287     O2291   2.166       .  S
Cd2287     O2300   2.096       .  S
Cd2287     O2289   1.998       .  S
O2288      C2298   1.269       .  A
O2289     Cd2290   1.988       .  S
Cd2290     O2292   2.136       .  S
O2291      C2298   1.284       .  A
C2293      O2297   1.251       .  A
C2298      C2390   1.491       .  S
C2299      O2300   1.279       .  A
O2301      C2317   1.266       .  A
O2301     Zn2307   1.987       .  S
C2302      O2318   1.262       .  A
C2302      O2315   1.285       .  A
C2302      C2486   1.470       .  S
O2303      C2316   1.293       .  A
O2303     Cd2310   2.172       .  S
O2304      C2322   1.269       .  A
O2304     Cd2313   2.049       .  S
O2305      C2319   1.273       .  A
O2306      C2317   1.280       .  A
O2306     Cd2309   2.108       .  S
Zn2307     O2318   1.963       .  S
Zn2307     O2320   1.857       .  S
Zn2307     O2312   1.913       .  S
O2308      C2319   1.279       .  A
Cd2309     O2311   2.029       .  S
Cd2309     O2312   1.992       .  S
Cd2310     O2314   2.166       .  S
Cd2310     O2323   2.096       .  S
Cd2310     O2312   1.999       .  S
O2311      C2321   1.269       .  A
O2312     Cd2313   1.988       .  S
Cd2313     O2315   2.136       .  S
O2314      C2321   1.284       .  A
C2316      O2320   1.251       .  A
C2316      C2342   1.453       .  S
C2317      C2363   1.467       .  S
C2319      C2339   1.453       .  S
C2322      O2323   1.279       .  A
C2322      C2919   1.471   1_556  S
O2324      C2340   1.266       .  A
O2324     Zn2330   1.987       .  S
C2325      O2341   1.262       .  A
C2325      O2338   1.285       .  A
C2325      C2509   1.470       .  S
O2326      C2339   1.293       .  A
O2326     Cd2333   2.172       .  S
O2327      C2345   1.269       .  A
O2327     Cd2336   2.049       .  S
O2328      C2342   1.273       .  A
O2328     Cd2332   2.054       .  S
O2329      C2340   1.280       .  A
O2329     Cd2332   2.108       .  S
Zn2330     O2341   1.963       .  S
Zn2330     O2343   1.857       .  S
Zn2330     O2335   1.913       .  S
O2331      C2342   1.279       .  A
O2331     Cd2336   2.081       .  S
Cd2332     O2334   2.029       .  S
Cd2332     O2335   1.992       .  S
Cd2333     O2337   2.166       .  S
Cd2333     O2346   2.096       .  S
Cd2333     O2335   1.998       .  S
O2334      C2344   1.269       .  A
O2335     Cd2336   1.988       .  S
Cd2336     O2338   2.136       .  S
O2337      C2344   1.284       .  A
C2339      O2343   1.251       .  A
C2340      C2386   1.467       .  S
C2345      O2346   1.279       .  A
C2345      C2942   1.471   1_556  S
O2347      C2363   1.266       .  A
O2347     Zn2353   1.987       .  S
C2348      O2364   1.262       .  A
C2348      O2361   1.285       .  A
C2348      C2532   1.470       .  S
O2349      C2362   1.293       .  A
O2349     Cd2356   2.172       .  S
O2350      C2368   1.269       .  A
O2350     Cd2359   2.049       .  S
O2351      C2365   1.273       .  A
O2351     Cd2355   2.054       .  S
O2352      C2363   1.280       .  A
O2352     Cd2355   2.108       .  S
Zn2353     O2364   1.963       .  S
Zn2353     O2366   1.857       .  S
Zn2353     O2358   1.914       .  S
O2354      C2365   1.279       .  A
O2354     Cd2359   2.081       .  S
Cd2355     O2357   2.029       .  S
Cd2355     O2358   1.992       .  S
Cd2356     O2360   2.166       .  S
Cd2356     O2369   2.096       .  S
Cd2356     O2358   1.998       .  S
O2357      C2367   1.269       .  A
O2358     Cd2359   1.988       .  S
Cd2359     O2361   2.136       .  S
O2360      C2367   1.284       .  A
C2362      O2366   1.251       .  A
C2365      C2385   1.453       .  S
C2368      O2369   1.279       .  A
O2370      C2386   1.266       .  A
O2370     Zn2376   1.987       .  S
C2371      O2387   1.262       .  A
C2371      O2384   1.285       .  A
C2371      C2555   1.470       .  S
O2372      C2385   1.293       .  A
O2372     Cd2379   2.172       .  S
O2373      C2391   1.269       .  A
O2373     Cd2382   2.049       .  S
O2374      C2388   1.273       .  A
O2374     Cd2378   2.054       .  S
O2375      C2386   1.280       .  A
O2375     Cd2378   2.108       .  S
Zn2376     O2387   1.963       .  S
Zn2376     O2389   1.857       .  S
Zn2376     O2381   1.914       .  S
O2377      C2388   1.279       .  A
O2377     Cd2382   2.081       .  S
Cd2378     O2380   2.029       .  S
Cd2378     O2381   1.992       .  S
Cd2379     O2383   2.166       .  S
Cd2379     O2392   2.096       .  S
Cd2379     O2381   1.999       .  S
O2380      C2390   1.269       .  A
O2381     Cd2382   1.988       .  S
Cd2382     O2384   2.136       .  S
O2383      C2390   1.284       .  A
C2385      O2389   1.251       .  A
C2391      O2392   1.279       .  A
O2393      C2409   1.266       .  A
O2393     Zn2399   1.987       .  S
C2394      O2410   1.262       .  A
C2394      O2407   1.285       .  A
O2395      C2408   1.293       .  A
O2395     Cd2402   2.172       .  S
O2396      C2414   1.269       .  A
O2396     Cd2405   2.049       .  S
O2397      C2411   1.273       .  A
O2397     Cd2401   2.054       .  S
O2398      C2409   1.280       .  A
O2398     Cd2401   2.108       .  S
Zn2399     O2410   1.963       .  S
Zn2399     O2412   1.857       .  S
Zn2399     O2404   1.913       .  S
O2400      C2411   1.279       .  A
O2400     Cd2405   2.081       .  S
Cd2401     O2403   2.029       .  S
Cd2401     O2404   1.992       .  S
Cd2402     O2406   2.166       .  S
Cd2402     O2415   2.096       .  S
Cd2402     O2404   1.998       .  S
O2403      C2413   1.269       .  A
O2404     Cd2405   1.988       .  S
Cd2405     O2407   2.136       .  S
O2406      C2413   1.284       .  A
C2408      O2412   1.251       .  A
C2408      C2434   1.453       .  S
C2409      C2455   1.467       .  S
C2411      C2431   1.453       .  S
C2413      C2505   1.491       .  S
C2414      O2415   1.279       .  A
C2414      C2735   1.471   1_556  S
O2416      C2432   1.266       .  A
O2416     Zn2422   1.987       .  S
C2417      O2433   1.262       .  A
C2417      O2430   1.285       .  A
O2418      C2431   1.293       .  A
O2419      C2437   1.269       .  A
O2419     Cd2428   2.049       .  S
O2420      C2434   1.273       .  A
O2420     Cd2424   2.054       .  S
O2421      C2432   1.280       .  A
O2421     Cd2424   2.108       .  S
Zn2422     O2433   1.963       .  S
Zn2422     O2427   1.913       .  S
O2423      C2434   1.279       .  A
O2423     Cd2428   2.081       .  S
Cd2424     O2426   2.029       .  S
Cd2424     O2427   1.992       .  S
Cd2425     O2429   2.166       .  S
Cd2425     O2438   2.096       .  S
Cd2425     O2427   1.998       .  S
O2426      C2436   1.269       .  A
O2427     Cd2428   1.988       .  S
Cd2428     O2430   2.136       .  S
O2429      C2436   1.284       .  A
C2431      O2435   1.251       .  A
C2432      C2478   1.467       .  S
C2436      C2528   1.491       .  S
C2437      O2438   1.279       .  A
C2437      C2758   1.471   1_556  S
O2439      C2455   1.266       .  A
O2439     Zn2445   1.987       .  S
C2440      O2456   1.262       .  A
C2440      O2453   1.285       .  A
O2441      C2454   1.293       .  A
O2441     Cd2448   2.172       .  S
O2442      C2460   1.269       .  A
O2442     Cd2451   2.049       .  S
O2443      C2457   1.273       .  A
O2443     Cd2447   2.054       .  S
O2444      C2455   1.280       .  A
O2444     Cd2447   2.108       .  S
Zn2445     O2456   1.964       .  S
Zn2445     O2458   1.857       .  S
Zn2445     O2450   1.914       .  S
O2446      C2457   1.279       .  A
O2446     Cd2451   2.081       .  S
Cd2447     O2449   2.029       .  S
Cd2447     O2450   1.992       .  S
Cd2448     O2452   2.166       .  S
Cd2448     O2461   2.096       .  S
Cd2448     O2450   1.999       .  S
O2449      C2459   1.269       .  A
O2450     Cd2451   1.988       .  S
Cd2451     O2453   2.136       .  S
O2452      C2459   1.284       .  A
C2454      O2458   1.251       .  A
C2454      C2480   1.453       .  S
C2457      C2477   1.453       .  S
C2459      C2574   1.491       .  S
C2460      O2461   1.279       .  A
O2462      C2478   1.266       .  A
O2462     Zn2468   1.987       .  S
C2463      O2479   1.262       .  A
O2464      C2477   1.293       .  A
O2464     Cd2471   2.172       .  S
O2465      C2483   1.269       .  A
O2465     Cd2474   2.049       .  S
O2466      C2480   1.273       .  A
O2466     Cd2470   2.054       .  S
O2467     Cd2470   2.108       .  S
Zn2468     O2479   1.964       .  S
Zn2468     O2481   1.857       .  S
Zn2468     O2473   1.914       .  S
O2469      C2480   1.279       .  A
O2469     Cd2474   2.081       .  S
Cd2470     O2472   2.029       .  S
Cd2471     O2475   2.166   1_655  S
Cd2471     O2484   2.096       .  S
Cd2471     O2473   1.999       .  S
O2472      C2482   1.269       .  A
Cd2474     O2476   2.136       .  S
C2477      O2481   1.251       .  A
C2482      C2551   1.491       .  S
O2485      C2501   1.266   1_565  A
O2485     Zn2491   1.987       .  S
C2486      O2502   1.262       .  A
C2486      O2499   1.285       .  A
O2487      C2500   1.293       .  A
O2487     Cd2494   2.172       .  S
O2488      C2506   1.269   1_565  A
O2488     Cd2497   2.049       .  S
O2489      C2503   1.273       .  A
O2489     Cd2493   2.054       .  S
O2490      C2501   1.280       .  A
O2490     Cd2493   2.107       .  S
Zn2491     O2502   1.963       .  S
Zn2491     O2504   1.857       .  S
Zn2491     O2496   1.913   1_565  S
O2492      C2503   1.279   1_565  A
O2492     Cd2497   2.081       .  S
Cd2493     O2495   2.029       .  S
Cd2493     O2496   1.992       .  S
Cd2494     O2498   2.166       .  S
Cd2494     O2507   2.096       .  S
Cd2494     O2496   1.998       .  S
O2495      C2505   1.269       .  A
O2496     Cd2497   1.988   1_545  S
Cd2497     O2499   2.136       .  S
O2498      C2505   1.284       .  A
C2500      O2504   1.251   1_545  A
C2501      C2547   1.467       .  S
C2503      C2523   1.453       .  S
C2506      O2507   1.279       .  A
C2506      C2827   1.471   1_556  S
O2508      C2524   1.266   1_565  A
O2508     Zn2514   1.987       .  S
C2509      O2525   1.262       .  A
C2509      O2522   1.285       .  A
O2510      C2523   1.293       .  A
O2510     Cd2517   2.172       .  S
O2511      C2529   1.269   1_565  A
O2511     Cd2520   2.049       .  S
O2512      C2526   1.273       .  A
O2512     Cd2516   2.054       .  S
O2513      C2524   1.280       .  A
O2513     Cd2516   2.107       .  S
Zn2514     O2525   1.963       .  S
Zn2514     O2527   1.857       .  S
Zn2514     O2519   1.913   1_565  S
O2515      C2526   1.279   1_565  A
O2515     Cd2520   2.081       .  S
Cd2516     O2518   2.029       .  S
Cd2516     O2519   1.992       .  S
Cd2517     O2521   2.166       .  S
Cd2517     O2530   2.096       .  S
Cd2517     O2519   1.998       .  S
O2518      C2528   1.269       .  A
O2519     Cd2520   1.988   1_545  S
Cd2520     O2522   2.136       .  S
O2521      C2528   1.284       .  A
C2523      O2527   1.251   1_545  A
C2524      C2570   1.467       .  S
C2529      O2530   1.279       .  A
C2529      C2850   1.471   1_556  S
O2531      C2547   1.266   1_565  A
O2531     Zn2537   1.987       .  S
C2532      O2548   1.262       .  A
C2532      O2545   1.285       .  A
O2533      C2546   1.293       .  A
O2533     Cd2540   2.172       .  S
O2534      C2552   1.270   1_565  A
O2534     Cd2543   2.049       .  S
O2535      C2549   1.273       .  A
O2536      C2547   1.280       .  A
O2536     Cd2539   2.108       .  S
Zn2537     O2548   1.963       .  S
Zn2537     O2550   1.857       .  S
Zn2537     O2542   1.913   1_565  S
O2538      C2549   1.279   1_565  A
Cd2539     O2541   2.029       .  S
Cd2539     O2542   1.992       .  S
Cd2540     O2544   2.166       .  S
Cd2540     O2553   2.096       .  S
Cd2540     O2542   1.998       .  S
O2541      C2551   1.269       .  A
O2542     Cd2543   1.988   1_545  S
Cd2543     O2545   2.136       .  S
O2544      C2551   1.284       .  A
C2546      O2550   1.251   1_545  A
C2546      C2572   1.453       .  S
C2549      C2569   1.453       .  S
C2552      O2553   1.279       .  A
O2554      C2570   1.266   1_565  A
O2554     Zn2560   1.987       .  S
C2555      O2571   1.262       .  A
C2555      O2568   1.285       .  A
O2556      C2569   1.293       .  A
O2556     Cd2563   2.172       .  S
O2557      C2575   1.270   1_565  A
O2557     Cd2566   2.049       .  S
O2558      C2572   1.273       .  A
O2558     Cd2562   2.054       .  S
O2559      C2570   1.280       .  A
O2559     Cd2562   2.108       .  S
Zn2560     O2571   1.963       .  S
Zn2560     O2573   1.857       .  S
Zn2560     O2565   1.913   1_565  S
O2561      C2572   1.279   1_565  A
O2561     Cd2566   2.081       .  S
Cd2562     O2564   2.029       .  S
Cd2562     O2565   1.992       .  S
Cd2563     O2567   2.166       .  S
Cd2563     O2576   2.096       .  S
Cd2563     O2565   1.998       .  S
O2564      C2574   1.269       .  A
O2565     Cd2566   1.988   1_545  S
Cd2566     O2568   2.136       .  S
O2567      C2574   1.284       .  A
C2569      O2573   1.251   1_545  A
C2575      O2576   1.279       .  A
O2577      C2593   1.262       .  A
O2577     Zn2583   1.963       .  S
C2578      O2594   1.266       .  A
C2578      O2591   1.280       .  A
C2578      C2624   1.467       .  S
O2579      C2592   1.293       .  A
O2580      C2598   1.269       .  A
O2580     Cd2589   2.029       .  S
O2581      C2595   1.279       .  A
O2581     Cd2585   2.081       .  S
O2582      C2593   1.285       .  A
O2582     Cd2585   2.136       .  S
Zn2583     O2594   1.987       .  S
Zn2583     O2588   1.913       .  S
O2584      C2595   1.273       .  A
O2584     Cd2589   2.054       .  S
Cd2585     O2587   2.049       .  S
Cd2585     O2588   1.988       .  S
Cd2586     O2590   2.096       .  S
Cd2586     O2599   2.166       .  S
Cd2586     O2588   1.999       .  S
O2587      C2597   1.269       .  A
O2588     Cd2589   1.992       .  S
Cd2589     O2591   2.108       .  S
O2590      C2597   1.279       .  A
C2592      O2596   1.251       .  A
C2592      C2618   1.453       .  S
C2593      C2869   1.470       .  S
C2595      C2615   1.453       .  S
C2598      O2599   1.284       .  A
C2598      C2690   1.491       .  S
O2600      C2616   1.262       .  A
O2600     Zn2606   1.964       .  S
C2601      O2617   1.266       .  A
C2601      O2614   1.280       .  A
C2601      C2647   1.467       .  S
O2602      C2615   1.293       .  A
O2602     Cd2609   2.172       .  S
O2603      C2621   1.269       .  A
O2603     Cd2612   2.029       .  S
O2604      C2618   1.279       .  A
O2604     Cd2608   2.081       .  S
O2605      C2616   1.285       .  A
O2605     Cd2608   2.136       .  S
Zn2606     O2617   1.987       .  S
Zn2606     O2619   1.857       .  S
Zn2606     O2611   1.913       .  S
O2607      C2618   1.273       .  A
O2607     Cd2612   2.054       .  S
Cd2608     O2610   2.049       .  S
Cd2608     O2611   1.988       .  S
Cd2609     O2613   2.096       .  S
Cd2609     O2622   2.166       .  S
Cd2609     O2611   1.998       .  S
O2610      C2620   1.269       .  A
O2611     Cd2612   1.992       .  S
Cd2612     O2614   2.108       .  S
O2613      C2620   1.279       .  A
C2615      O2619   1.251       .  A
C2616      C2892   1.470       .  S
C2621      O2622   1.284       .  A
C2621      C2713   1.491       .  S
O2623      C2639   1.262       .  A
O2623     Zn2629   1.963       .  S
C2624      O2640   1.266       .  A
O2625      C2638   1.293       .  A
O2625     Cd2632   2.172       .  S
O2626      C2644   1.269       .  A
O2626     Cd2635   2.029       .  S
O2627      C2641   1.279       .  A
O2627     Cd2631   2.081       .  S
O2628     Cd2631   2.136       .  S
Zn2629     O2640   1.987       .  S
Zn2629     O2642   1.857       .  S
Zn2629     O2634   1.913       .  S
O2630      C2641   1.273       .  A
O2630     Cd2635   2.054       .  S
Cd2631     O2633   2.049       .  S
Cd2632     O2636   2.096       .  S
Cd2632     O2645   2.166       .  S
Cd2632     O2634   1.998       .  S
O2633      C2643   1.269   1_655  A
Cd2635     O2637   2.108       .  S
C2638      O2642   1.251       .  A
C2638      C2664   1.453       .  S
C2639      C2915   1.470       .  S
C2641      C2661   1.453       .  S
C2644      C2759   1.491       .  S
O2646      C2662   1.262       .  A
O2646     Zn2652   1.963       .  S
C2647      O2663   1.266       .  A
C2647      O2660   1.280       .  A
O2648      C2661   1.293       .  A
O2648     Cd2655   2.172       .  S
O2649      C2667   1.269       .  A
O2649     Cd2658   2.029       .  S
O2650      C2664   1.279       .  A
O2650     Cd2654   2.081       .  S
O2651      C2662   1.285       .  A
O2651     Cd2654   2.136       .  S
Zn2652     O2663   1.987       .  S
Zn2652     O2665   1.857       .  S
Zn2652     O2657   1.913       .  S
O2653      C2664   1.273       .  A
O2653     Cd2658   2.054       .  S
Cd2654     O2656   2.049       .  S
Cd2654     O2657   1.988       .  S
Cd2655     O2659   2.096       .  S
Cd2655     O2668   2.166       .  S
Cd2655     O2657   1.998       .  S
O2656      C2666   1.269       .  A
O2657     Cd2658   1.992       .  S
Cd2658     O2660   2.108       .  S
O2659      C2666   1.279       .  A
C2661      O2665   1.251       .  A
C2662      C2938   1.470       .  S
C2667      O2668   1.284       .  A
C2667      C2736   1.491       .  S
O2669      C2685   1.262       .  A
O2669     Zn2675   1.963       .  S
C2670      O2686   1.266       .  A
C2670      O2683   1.280       .  A
C2670      C2716   1.467       .  S
O2671      C2684   1.293       .  A
O2671     Cd2678   2.172       .  S
O2672      C2690   1.269       .  A
O2672     Cd2681   2.029       .  S
O2673      C2687   1.279       .  A
O2673     Cd2677   2.081       .  S
O2674      C2685   1.285       .  A
O2674     Cd2677   2.136       .  S
Zn2675     O2686   1.987       .  S
Zn2675     O2688   1.857       .  S
Zn2675     O2680   1.913       .  S
O2676      C2687   1.273       .  A
O2676     Cd2681   2.054       .  S
Cd2677     O2679   2.049       .  S
Cd2677     O2680   1.988       .  S
Cd2678     O2682   2.096       .  S
Cd2678     O2691   2.166       .  S
Cd2678     O2680   1.998       .  S
O2679      C2689   1.270       .  A
O2680     Cd2681   1.992       .  S
Cd2681     O2683   2.108       .  S
O2682      C2689   1.279       .  A
C2684      O2688   1.251       .  A
C2684      C2710   1.453       .  S
C2685      C2777   1.470       .  S
C2690      O2691   1.284       .  A
O2692      C2708   1.262       .  A
O2692     Zn2698   1.963       .  S
C2693      O2709   1.266       .  A
C2693      O2706   1.280       .  A
C2693      C2739   1.467       .  S
O2694      C2707   1.293       .  A
O2694     Cd2701   2.172       .  S
O2695      C2713   1.269       .  A
O2695     Cd2704   2.029       .  S
O2696      C2710   1.279       .  A
O2696     Cd2700   2.081       .  S
O2697      C2708   1.285       .  A
O2697     Cd2700   2.136       .  S
Zn2698     O2709   1.987       .  S
Zn2698     O2711   1.857       .  S
Zn2698     O2703   1.913       .  S
O2699      C2710   1.273       .  A
O2699     Cd2704   2.054       .  S
Cd2700     O2702   2.049       .  S
Cd2700     O2703   1.988       .  S
Cd2701     O2705   2.096       .  S
Cd2701     O2714   2.166       .  S
Cd2701     O2703   1.998       .  S
O2702      C2712   1.270       .  A
O2703     Cd2704   1.992       .  S
Cd2704     O2706   2.108       .  S
O2705      C2712   1.279       .  A
C2707      O2711   1.251       .  A
C2708      C2800   1.470       .  S
C2713      O2714   1.284       .  A
O2715      C2731   1.262       .  A
O2715     Zn2721   1.963       .  S
C2716      O2732   1.266       .  A
C2716      O2729   1.280       .  A
O2717      C2730   1.293       .  A
O2717     Cd2724   2.172       .  S
O2718      C2736   1.269       .  A
O2718     Cd2727   2.029       .  S
O2719      C2733   1.279       .  A
O2719     Cd2723   2.081       .  S
O2720      C2731   1.285       .  A
O2720     Cd2723   2.136       .  S
Zn2721     O2732   1.987       .  S
Zn2721     O2734   1.857       .  S
Zn2721     O2726   1.914       .  S
O2722      C2733   1.273       .  A
O2722     Cd2727   2.054       .  S
Cd2723     O2725   2.049       .  S
Cd2723     O2726   1.988       .  S
Cd2724     O2728   2.096       .  S
Cd2724     O2737   2.166       .  S
Cd2724     O2726   1.998       .  S
O2725      C2735   1.269       .  A
O2726     Cd2727   1.992       .  S
Cd2727     O2729   2.108       .  S
O2728      C2735   1.279       .  A
C2730      O2734   1.251       .  A
C2730      C2756   1.453       .  S
C2731      C2823   1.470       .  S
C2733      C2753   1.453       .  S
C2736      O2737   1.284       .  A
O2738      C2754   1.262       .  A
O2738     Zn2744   1.963       .  S
C2739      O2755   1.266       .  A
C2739      O2752   1.280       .  A
O2740      C2753   1.293       .  A
O2740     Cd2747   2.172       .  S
O2741      C2759   1.269       .  A
O2741     Cd2750   2.029       .  S
O2742      C2756   1.279       .  A
O2743      C2754   1.285       .  A
O2743     Cd2746   2.136       .  S
Zn2744     O2755   1.987       .  S
Zn2744     O2757   1.857       .  S
Zn2744     O2749   1.914       .  S
O2745      C2756   1.273       .  A
Cd2746     O2748   2.049       .  S
Cd2746     O2749   1.988       .  S
Cd2747     O2751   2.096       .  S
Cd2747     O2760   2.166       .  S
Cd2747     O2749   1.998       .  S
O2748      C2758   1.269       .  A
O2749     Cd2750   1.992       .  S
Cd2750     O2752   2.108       .  S
O2751      C2758   1.279       .  A
C2753      O2757   1.251       .  A
C2754      C2846   1.470       .  S
C2759      O2760   1.284       .  A
O2761      C2777   1.262       .  A
O2761     Zn2767   1.964       .  S
C2762      O2778   1.266       .  A
C2762      O2775   1.280   1_545  A
C2762      C2808   1.467       .  S
O2763      C2776   1.293       .  A
O2763     Cd2770   2.172       .  S
O2764      C2782   1.269       .  A
O2764     Cd2773   2.029       .  S
O2765      C2779   1.279   1_545  A
O2765     Cd2769   2.081       .  S
O2766      C2777   1.285       .  A
O2766     Cd2769   2.136       .  S
Zn2767     O2778   1.987       .  S
Zn2767     O2780   1.857       .  S
Zn2767     O2772   1.914   1_545  S
O2768      C2779   1.273       .  A
O2768     Cd2773   2.054       .  S
Cd2769     O2771   2.049       .  S
Cd2769     O2772   1.988   1_545  S
Cd2770     O2774   2.096       .  S
Cd2770     O2783   2.166       .  S
Cd2770     O2772   1.999       .  S
O2771      C2781   1.269       .  A
O2772     Cd2773   1.992       .  S
Cd2773     O2775   2.108       .  S
O2774      C2781   1.279   1_565  A
C2776      O2780   1.251   1_565  A
C2776      C2802   1.453       .  S
C2779      C2799   1.453       .  S
C2782      O2783   1.284       .  A
C2782      C2897   1.491       .  S
O2784      C2800   1.263       .  A
O2784     Zn2790   1.964       .  S
C2785      O2801   1.266       .  A
C2785      O2798   1.280   1_545  A
C2785      C2831   1.467       .  S
O2786      C2799   1.293       .  A
O2786     Cd2793   2.172       .  S
O2787      C2805   1.269       .  A
O2787     Cd2796   2.029       .  S
O2788      C2802   1.279   1_545  A
O2789      C2800   1.285       .  A
O2789     Cd2792   2.136       .  S
Zn2790     O2801   1.987       .  S
Zn2790     O2803   1.857       .  S
Zn2790     O2795   1.914   1_545  S
O2791      C2802   1.273       .  A
Cd2792     O2794   2.049       .  S
Cd2792     O2795   1.988   1_545  S
Cd2793     O2797   2.096       .  S
Cd2793     O2806   2.166       .  S
Cd2793     O2795   1.999       .  S
O2794      C2804   1.269       .  A
O2795     Cd2796   1.992       .  S
Cd2796     O2798   2.108       .  S
O2797      C2804   1.279   1_565  A
C2799      O2803   1.251   1_565  A
C2805      O2806   1.284       .  A
C2805      C2874   1.491       .  S
O2807      C2823   1.262       .  A
O2807     Zn2813   1.963       .  S
C2808      O2824   1.266       .  A
C2808      O2821   1.280   1_545  A
O2809      C2822   1.293       .  A
O2809     Cd2816   2.172       .  S
O2810      C2828   1.269       .  A
O2810     Cd2819   2.029       .  S
O2811      C2825   1.279   1_545  A
O2811     Cd2815   2.081       .  S
O2812      C2823   1.285       .  A
O2812     Cd2815   2.136       .  S
Zn2813     O2824   1.987       .  S
Zn2813     O2826   1.857       .  S
Zn2813     O2818   1.913   1_545  S
O2814      C2825   1.273       .  A
O2814     Cd2819   2.054       .  S
Cd2815     O2817   2.049       .  S
Cd2815     O2818   1.988   1_545  S
Cd2816     O2820   2.096       .  S
Cd2816     O2829   2.166       .  S
Cd2816     O2818   1.998       .  S
O2817      C2827   1.269       .  A
O2818     Cd2819   1.992       .  S
Cd2819     O2821   2.108       .  S
O2820      C2827   1.279   1_565  A
C2822      O2826   1.251   1_565  A
C2822      C2848   1.453       .  S
C2828      O2829   1.284       .  A
C2828      C2920   1.491       .  S
O2830      C2846   1.262       .  A
O2830     Zn2836   1.963       .  S
C2831      O2847   1.266       .  A
C2831      O2844   1.280   1_545  A
O2832      C2845   1.293       .  A
O2832     Cd2839   2.172       .  S
O2833      C2851   1.269       .  A
O2833     Cd2842   2.029       .  S
O2834      C2848   1.279   1_545  A
O2834     Cd2838   2.081       .  S
O2835      C2846   1.285       .  A
O2835     Cd2838   2.136       .  S
Zn2836     O2847   1.987       .  S
Zn2836     O2849   1.856       .  S
Zn2836     O2841   1.913   1_545  S
O2837      C2848   1.273       .  A
O2837     Cd2842   2.054       .  S
Cd2838     O2840   2.049       .  S
Cd2838     O2841   1.988   1_545  S
Cd2839     O2843   2.096       .  S
Cd2839     O2852   2.166       .  S
Cd2839     O2841   1.998       .  S
O2840      C2850   1.269       .  A
O2841     Cd2842   1.992       .  S
Cd2842     O2844   2.108       .  S
O2843      C2850   1.279   1_565  A
C2845      O2849   1.251   1_565  A
C2851      O2852   1.284       .  A
C2851      C2943   1.491       .  S
O2853      C2869   1.262       .  A
O2853     Zn2859   1.963       .  S
C2854      O2870   1.266       .  A
C2854      C2900   1.467       .  S
O2855      C2868   1.293       .  A
O2855     Cd2862   2.172       .  S
O2856      C2874   1.269       .  A
O2856     Cd2865   2.029       .  S
O2857      C2871   1.279       .  A
O2857     Cd2861   2.081       .  S
O2858     Cd2861   2.136       .  S
Zn2859     O2870   1.987       .  S
Zn2859     O2872   1.857       .  S
Zn2859     O2864   1.913       .  S
O2860      C2871   1.273       .  A
O2860     Cd2865   2.054       .  S
Cd2861     O2863   2.049       .  S
Cd2862     O2866   2.096       .  S
Cd2862     O2875   2.166       .  S
Cd2862     O2864   1.998       .  S
O2863      C2873   1.270   1_655  A
Cd2865     O2867   2.108       .  S
C2868      O2872   1.251       .  A
C2868      C2894   1.453       .  S
C2871      C2891   1.453       .  S
O2876      C2892   1.262       .  A
O2876     Zn2882   1.963       .  S
C2877      O2893   1.266       .  A
C2877      O2890   1.280       .  A
C2877      C2923   1.467       .  S
O2878      C2891   1.293       .  A
O2878     Cd2885   2.172       .  S
O2879      C2897   1.269       .  A
O2879     Cd2888   2.029       .  S
O2880      C2894   1.279       .  A
O2880     Cd2884   2.081       .  S
O2881      C2892   1.285       .  A
O2881     Cd2884   2.136       .  S
Zn2882     O2893   1.987       .  S
Zn2882     O2895   1.857       .  S
Zn2882     O2887   1.913       .  S
O2883      C2894   1.273       .  A
O2883     Cd2888   2.054       .  S
Cd2884     O2886   2.049       .  S
Cd2884     O2887   1.988       .  S
Cd2885     O2889   2.096       .  S
Cd2885     O2898   2.166       .  S
Cd2885     O2887   1.998       .  S
O2886      C2896   1.270       .  A
O2887     Cd2888   1.992       .  S
Cd2888     O2890   2.108       .  S
O2889      C2896   1.279       .  A
C2891      O2895   1.251       .  A
C2897      O2898   1.284       .  A
O2899      C2915   1.262       .  A
O2899     Zn2905   1.963       .  S
C2900      O2916   1.266       .  A
C2900      O2913   1.280       .  A
O2901      C2914   1.293       .  A
O2902      C2920   1.269       .  A
O2902     Cd2911   2.029       .  S
O2903      C2917   1.279       .  A
O2903     Cd2907   2.081       .  S
O2904      C2915   1.285       .  A
O2904     Cd2907   2.136       .  S
Zn2905     O2916   1.987       .  S
Zn2905     O2910   1.914       .  S
O2906      C2917   1.273       .  A
O2906     Cd2911   2.054       .  S
Cd2907     O2909   2.049       .  S
Cd2907     O2910   1.988       .  S
Cd2908     O2912   2.096       .  S
Cd2908     O2921   2.166       .  S
Cd2908     O2910   1.998       .  S
O2909      C2919   1.269       .  A
O2910     Cd2911   1.992       .  S
Cd2911     O2913   2.108       .  S
O2912      C2919   1.279       .  A
C2914      O2918   1.251       .  A
C2914      C2940   1.453       .  S
C2917      C2937   1.453       .  S
C2920      O2921   1.284       .  A
O2922      C2938   1.262       .  A
O2922     Zn2928   1.963       .  S
C2923      O2939   1.266       .  A
C2923      O2936   1.280       .  A
O2924      C2937   1.293       .  A
O2924     Cd2931   2.172       .  S
O2925      C2943   1.269       .  A
O2925     Cd2934   2.029       .  S
O2926      C2940   1.279       .  A
O2926     Cd2930   2.081       .  S
O2927      C2938   1.285       .  A
O2927     Cd2930   2.136       .  S
Zn2928     O2939   1.987       .  S
Zn2928     O2941   1.857       .  S
Zn2928     O2933   1.914       .  S
O2929      C2940   1.273       .  A
O2929     Cd2934   2.054       .  S
Cd2930     O2932   2.049       .  S
Cd2930     O2933   1.988       .  S
Cd2931     O2935   2.096       .  S
Cd2931     O2944   2.166       .  S
Cd2931     O2933   1.999       .  S
O2932      C2942   1.269       .  A
O2933     Cd2934   1.992       .  S
Cd2934     O2936   2.108       .  S
O2935      C2942   1.279       .  A
C2937      O2941   1.251       .  A
C2943      O2944   1.284       .  A
