geometry optimzed in LAMMPS
_audit_creation_date              2020-12-01 
_audit_creation_method            'lammps2cif' 
_symmetry_space_group_name_H-M    'P1' 
_symmetry_Int_Tables_number       1 
_symmetry_cell_setting            triclinic 
loop_ 
_symmetry_equiv_pos_as_xyz 
  x,y,z 
_cell_length_a                    45.57165241 
_cell_length_b                    45.62182067967136 
_cell_length_c                    32.82240208336867 
_cell_angle_alpha                 89.99256843250274 
_cell_angle_beta                  89.93125323945925 
_cell_angle_gamma                 120.00963092651256 
loop_ 
_atom_site_label 
_atom_site_type_symbol 
_atom_site_fract_x 
_atom_site_fract_y 
_atom_site_fract_z 
_atom_site_charge 
Fe1        Fe  0.33769945  0.28299084  0.28514977     1.65200
Fe2        Fe  0.33298046  0.24068755  0.37112748     1.73200
Fe3        Fe  0.26572623  0.24592901  0.34075004     1.54400
O4          O  0.27597181  0.29294125  0.31806168    -0.80400
O5          O  0.29609085  0.19157335  0.36550361    -0.78700
O6          O  0.33103746  0.32234225  0.30243218    -0.82900
O7          O  0.29421482  0.26295947  0.24823696    -0.77700
O8          O  0.27769734  0.26786319  0.39640052    -0.79500
O9          O  0.36043562  0.23242337  0.32489456    -0.82200
C10         C  0.26350354  0.23895371  0.25138039     0.98500
C11         C  0.30281085  0.32057944  0.30908823     1.06000
O12         O  0.31175450  0.25572656  0.33176018    -1.11200
O13         O  0.37044415  0.28933632  0.37967064    -0.73700
O14         O  0.38469241  0.30486131  0.31552149    -0.77100
O15         O  0.25054761  0.22433935  0.28480856    -0.77800
C16         C  0.39271441  0.30445190  0.35260994     0.97400
O17         O  0.34654155  0.24585474  0.26520517    -0.75800
O18         O  0.30675041  0.24501268  0.42169065    -0.81000
C19         C  0.26509698  0.18052922  0.37327943     1.00100
C20         C  0.28645740  0.25640157  0.42599817     1.06000
O21         O  0.25053657  0.19786077  0.36660645    -0.76600
C22         C  0.36061179  0.23282560  0.28585852     1.04300
Fe23       Fe  0.14004604  0.18788611  0.03600156     1.65800
Fe24       Fe  0.14476542  0.23044855  0.12188309     1.73200
Fe25       Fe  0.21185144  0.22474734  0.09160400     1.54400
O26         O  0.20167642  0.17775844  0.06895241    -0.80400
O27         O  0.18183857  0.27956220  0.11620780    -0.78700
O28         O  0.14673589  0.14841530  0.05304556    -0.82900
O29         O  0.18356862  0.20815786  0.99900111    -0.77700
O30         O  0.19952798  0.20271056  0.14723115    -0.79500
O31         O  0.11732343  0.23874748  0.07559558    -0.82200
C32         C  0.21429433  0.23211285  0.00218509     0.98500
C33         C  0.17492011  0.15013561  0.05984055     1.06000
O34         O  0.16591995  0.21517104  0.08255720    -1.11200
O35         O  0.10722694  0.18183880  0.13062505    -0.73700
O36         O  0.09308670  0.16593690  0.06656968    -0.77100
O37         O  0.22727604  0.24644211  0.03568943    -0.77800
C38         C  0.08502271  0.16656322  0.10361622     0.97400
O39         O  0.13109706  0.22497023  0.01603280    -0.75800
O40         O  0.17096111  0.22612255  0.17245826    -0.81000
C41         C  0.21279154  0.29036580  0.12393373     1.00100
C42         C  0.19109957  0.21454631  0.17677093     1.06000
O43         O  0.22710572  0.27278881  0.11739543    -0.76600
C44         C  0.11706458  0.23813390  0.03654280     1.04300
Fe45       Fe  0.19343340  0.03786476  0.45205589     1.65800
Fe46       Fe  0.23418894  0.07432925  0.03917307     1.73200
Fe47       Fe  0.22899353  0.50177239  0.00787562     1.54400
O48         O  0.18386492  0.46609830  0.48405651    -0.80400
O49         O  0.28351459  0.08704634  0.03402681    -0.78700
O50         O  0.15391029  0.49128583  0.46929106    -0.82900
O51         O  0.21339788  0.01443799  0.41505926    -0.77700
O52         O  0.20654495  0.49139574  0.06324079    -0.79500
O53         O  0.24487121  0.11151574  0.49106182    -0.82200
C54         C  0.23714729  0.00736803  0.41810918     0.98500
C55         C  0.15599885  0.46498460  0.47558976     1.06000
O56         O  0.21971557  0.03842050  0.99931333    -1.11200
O57         O  0.18532661  0.06271986  0.04739043    -0.73700
O58         O  0.17171003  0.06289923  0.48284640    -0.77100
O59         O  0.25179112  0.00890696  0.45144116    -0.77800
C60         C  0.17036123  0.06992455  0.02025849     0.97400
O61         O  0.23049132  0.08384487  0.43166197    -0.75800
O62         O  0.22964935  0.04337395  0.08941183    -0.81000
C63         C  0.29477894  0.06724589  0.04135973     1.00100
C64         C  0.21854604  0.01171720  0.09328754     1.06000
O65         O  0.27772446  0.03543914  0.03408299    -0.76600
C66         C  0.24399243  0.11106811  0.45205015     1.04300
Fe67       Fe  0.28576119  0.43330228  0.20154256     1.65800
Fe68       Fe  0.24395746  0.39588677  0.28806208     1.73200
Fe69       Fe  0.24774285  0.46733864  0.25643489     1.54400
O70         O  0.29547897  0.00489953  0.23534499    -0.80400
O71         O  0.19451058  0.38274857  0.28302569    -0.78700
O72         O  0.32473909  0.47980236  0.21849020    -0.82900
O73         O  0.26504584  0.45593242  0.16440056    -0.77700
O74         O  0.27023727  0.47835504  0.31170956    -0.79500
O75         O  0.23570068  0.35989689  0.24216966    -0.82200
C76         C  0.24056717  0.46193744  0.16743022     0.98500
C77         C  0.32334892  0.00614697  0.22653092     1.06000
O78         O  0.25829577  0.43166172  0.24809643    -1.11200
O79         O  0.29294713  0.40807569  0.29617749    -0.73700
O80         O  0.30831274  0.40901391  0.23206094    -0.77100
O81         O  0.22561670  0.45973510  0.20074905    -0.77800
C82         C  0.30800745  0.40082701  0.26920825     0.97400
O83         O  0.24893572  0.38691076  0.18217890    -0.75800
O84         O  0.24837760  0.42690119  0.33814303    -0.81000
C85         C  0.18310075  0.40245707  0.29013408     1.00100
C86         C  0.25949062  0.45857649  0.34178757     1.06000
O87         O  0.20008572  0.43424427  0.28290326    -0.76600
C88         C  0.23589006  0.35991582  0.20309907     1.04300
Fe89       Fe  0.04098416  0.33427054  0.36952108     1.65800
Fe90       Fe  0.07879936  0.32903024  0.45515550     1.73200
Fe91       Fe  0.00545551  0.26257892  0.42530292     1.54400
O92         O  0.46883986  0.27352509  0.40316954    -0.80400
O93         O  0.09013699  0.29152840  0.44938649    -0.78700
O94         O  0.49497170  0.32833869  0.38669867    -0.82900
O95         O  0.01701431  0.29084726  0.33269093    -0.77700
O96         O  0.49644627  0.27608874  0.48126142    -0.79500
O97         O  0.11448387  0.35583599  0.40870790    -0.82200
C98         C  0.00979381  0.26000884  0.33579070     0.98500
C99         C  0.46829667  0.30036633  0.39367633     1.06000
O100        O  0.04216031  0.30826797  0.41607937    -1.11200
O101        O  0.06866085  0.36715938  0.46394199    -0.73700
O102        O  0.06665680  0.38115024  0.39983196    -0.77100
O103        O  0.01115009  0.24688792  0.36922035    -0.77800
C104        C  0.07554852  0.38925721  0.43678089     0.97400
O105        O  0.08669859  0.34231704  0.34934680    -0.75800
O106        O  0.04844084  0.30220587  0.00479118    -0.81000
C107        C  0.06978961  0.26072246  0.45744532     1.00100
C108        C  0.01664887  0.28272750  0.00959794     1.06000
O109        O  0.03788063  0.24668497  0.45098378    -0.76600
C110        C  0.11396614  0.35585845  0.36969321     1.04300
Fe111      Fe  0.43750213  0.13753931  0.11983528     1.65800
Fe112      Fe  0.39944218  0.14284795  0.20528259     1.73200
Fe113      Fe  0.47292267  0.20935043  0.17544151     1.54400
O114        O  0.00914058  0.19841936  0.15291410    -0.80400
O115        O  0.38822488  0.18038853  0.19905127    -0.78700
O116        O  0.48345576  0.14373327  0.13705248    -0.82900
O117        O  0.46120137  0.18090335  0.08282965    -0.77700
O118        O  0.48205807  0.19679392  0.23128488    -0.79500
O119        O  0.36382098  0.11592117  0.15892402    -0.82200
C120        C  0.46843058  0.21174711  0.08582724     0.98500
C121        C  0.00959728  0.17152616  0.14348866     1.06000
O122        O  0.43623946  0.16358051  0.16629468    -1.11200
O123        O  0.40942006  0.10463634  0.21446347    -0.73700
O124        O  0.41212117  0.09075054  0.15045703    -0.77100
O125        O  0.46732680  0.22500700  0.11926799    -0.77800
C126        C  0.40309304  0.08260299  0.18740154     0.97400
O127        O  0.39167552  0.12907294  0.09955452    -0.75800
O128        O  0.42982061  0.16854101  0.25605157    -0.81000
C129        C  0.40852471  0.21116792  0.20717752     1.00100
C130        C  0.46158090  0.18824940  0.26068812     1.06000
O131        O  0.44046625  0.22521347  0.20099114    -0.76600
C132        C  0.36437679  0.11561670  0.11991633     1.04300
C133        C  0.49900641  0.23852442  0.29953143    -0.15100
C134        C  0.47506657  0.20539237  0.29991254    -0.30300
H135        H  0.50841976  0.25153751  0.27059040     0.13900
H136        H  0.46258343  0.19294669  0.32814603     0.14500
C137        C  0.50355931  0.26571730  0.04881191    -0.15100
C138        C  0.47910798  0.23273380  0.04885828    -0.30300
H139        H  0.01584947  0.27816072  0.07702261     0.13900
H140        H  0.46935858  0.21961831  0.02008528     0.14500
C141        C  0.15027122  0.38795134  0.31118785    -0.15100
C142        C  0.14629993  0.37212061  0.34725304    -0.30300
H143        H  0.13015284  0.39131143  0.29847698     0.13900
H144        H  0.16784450  0.37196795  0.36123971     0.14500
C145        C  0.35375448  0.03975715  0.22332766    -0.15100
C146        C  0.37976360  0.04687612  0.19789098    -0.30300
H147        H  0.35239123  0.06035525  0.23818180     0.13900
H148        H  0.37970143  0.02702966  0.17954425     0.14500
C149        C  0.22133202  0.49717058  0.13194236    -0.15100
C150        C  0.23012146  0.47290738  0.13093797    -0.30300
H151        H  0.22146547  0.50931805  0.16046434     0.13900
H152        H  0.23369901  0.46375642  0.10181413     0.14500
C153        C  0.25632041  0.47276585  0.38074471    -0.15100
C154        C  0.24701436  0.49664052  0.38007241    -0.30300
H155        H  0.25695305  0.46095996  0.40922452     0.13900
H156        H  0.24402753  0.00579309  0.35246513     0.14500
C157        C  0.32758154  0.08177680  0.06256153    -0.15100
C158        C  0.33205365  0.09922157  0.09749098    -0.30300
H159        H  0.34722363  0.07711691  0.05101698     0.13900
H160        H  0.31088389  0.10063355  0.11064536     0.14500
C161        C  0.12550579  0.43147870  0.47216152    -0.15100
C162        C  0.09942383  0.42483566  0.44715292    -0.30300
H163        H  0.12669753  0.41063380  0.48658690     0.13900
H164        H  0.09963851  0.44491560  0.42913457     0.14500
C165        C  0.04938619  0.15477818  0.11425816    -0.15100
C166        C  0.04284772  0.17384601  0.14006174    -0.30300
H167        H  0.02926465  0.13543533  0.09576623     0.13900
H168        H  0.06377936  0.19538683  0.15510498     0.14500
C169        C  0.10004774  0.25352858  0.01420495    -0.15100
C170        C  0.08389090  0.24206560  0.47868504    -0.30300
H171        H  0.10004442  0.27518963  0.02801871     0.13900
H172        H  0.07943666  0.21798212  0.46673495     0.14500
C173        C  0.23142568  0.32320731  0.14485611    -0.15100
C174        C  0.22004688  0.32730718  0.18125607    -0.30300
H175        H  0.25448908  0.34342610  0.13140738     0.13900
H176        H  0.19869164  0.30575785  0.19577677     0.14500
C177        C  0.17770966  0.11950009  0.05631183    -0.15100
C178        C  0.15852342  0.09369844  0.03083651    -0.30300
H179        H  0.19950796  0.12040988  0.07106881     0.13900
H180        H  0.13894150  0.09421032  0.01253259     0.14500
C181        C  0.37756125  0.21728860  0.26380969    -0.15100
C182        C  0.39430678  0.22971902  0.22831351    -0.30300
H183        H  0.37690779  0.19527555  0.27754375     0.13900
H184        H  0.39808094  0.25341489  0.21584403     0.14500
C185        C  0.42836521  0.31640065  0.36333641    -0.15100
C186        C  0.43497363  0.29785032  0.38989375    -0.30300
H187        H  0.44848597  0.33546610  0.34450379     0.13900
H188        H  0.41406620  0.27649438  0.40530311     0.14500
C189        C  0.23569110  0.24283659  0.46455844    -0.15100
C190        C  0.26900515  0.25259281  0.46507704    -0.30300
H191        H  0.22263555  0.23870408  0.43559093     0.13900
H192        H  0.28153065  0.25310636  0.49342773     0.14500
C193        C  0.24217305  0.22846947  0.21476131    -0.15100
C194        C  0.20883232  0.21863709  0.21565714    -0.30300
H195        H  0.25505122  0.23249128  0.18563710     0.13900
H196        H  0.19646449  0.21822886  0.24413974     0.14500
C197        C  0.24680472  0.14772861  0.39447800    -0.15100
C198        C  0.25955721  0.14344025  0.42969988    -0.30300
H199        H  0.22284541  0.12786165  0.38249856     0.13900
H200        H  0.28179941  0.16478701  0.44308364     0.14500
C201        C  0.31965002  0.37700974  0.28004515    -0.15100
C202        C  0.30011944  0.35120616  0.30539758    -0.30300
H203        H  0.33937852  0.37647100  0.26201030     0.13900
H204        H  0.27819919  0.35032034  0.31985818     0.14500
Fe205      Fe  0.33743510  0.28203770  0.78633256     1.65200
Fe206      Fe  0.33243734  0.23943854  0.87228143     1.73200
Fe207      Fe  0.26553919  0.24550322  0.84207581     1.54400
O208        O  0.27599242  0.29247767  0.81916209    -0.80400
O209        O  0.29511165  0.19047022  0.86688082    -0.78700
O210        O  0.33101332  0.32164993  0.80338304    -0.82900
O211        O  0.29395024  0.26201530  0.74951324    -0.77700
O212        O  0.27800198  0.26770497  0.89757645    -0.79500
O213        O  0.35950648  0.23066134  0.82591897    -0.82200
C214        C  0.26314835  0.23820955  0.75262954     0.98500
C215        C  0.30285051  0.32003102  0.81006080     1.06000
O216        O  0.31144496  0.25486447  0.83297540    -1.11200
O217        O  0.37044716  0.28785687  0.88080693    -0.73700
O218        O  0.38440085  0.30376770  0.81665444    -0.77100
O219        O  0.24998379  0.22381306  0.78612313    -0.77800
C220        C  0.39256659  0.30311768  0.85361922     0.97400
O221        O  0.34608094  0.24476188  0.76636908    -0.75800
O222        O  0.30648142  0.24424587  0.92289480    -0.81000
C223        C  0.26424904  0.17983861  0.87497382     1.00100
C224        C  0.28645536  0.25597315  0.92718257     1.06000
O225        O  0.24999960  0.19746114  0.86830227    -0.76600
C226        C  0.35978346  0.23128375  0.78687211     1.04300
Fe227      Fe  0.14059779  0.18845682  0.53582862     1.65800
Fe228      Fe  0.14573532  0.23163834  0.62134887     1.73200
Fe229      Fe  0.21277515  0.22596353  0.59091397     1.54400
O230        O  0.20258520  0.17890611  0.56870912    -0.80400
O231        O  0.18276978  0.28068845  0.61522473    -0.78700
O232        O  0.14756670  0.14923225  0.55318696    -0.82900
O233        O  0.18387464  0.20846229  0.49855413    -0.77700
O234        O  0.20104275  0.20444579  0.64690871    -0.79500
O235        O  0.11832568  0.23985935  0.57506588    -0.82200
C236        C  0.21458254  0.23247600  0.50140109     0.98500
C237        C  0.17587288  0.15118025  0.55984780     1.06000
O238        O  0.16670115  0.21610523  0.58212556    -1.11200
O239        O  0.10814162  0.18314131  0.63049262    -0.73700
O240        O  0.09383129  0.16662351  0.56662712    -0.77100
O241        O  0.22771271  0.24718367  0.53468703    -0.77800
C242        C  0.08589550  0.16753679  0.60363586     0.97400
O243        O  0.13134493  0.22529183  0.51552019    -0.75800
O244        O  0.17191356  0.22734590  0.67197706    -0.81000
C245        C  0.21373920  0.29160276  0.62287049     1.00100
C246        C  0.19210467  0.21584152  0.67646041     1.06000
O247        O  0.22813141  0.27411965  0.61629391    -0.76600
C248        C  0.11778580  0.23893539  0.53603900     1.04300
Fe249      Fe  0.19264321  0.03718869  0.95260552     1.65800
Fe250      Fe  0.23674341  0.07595789  0.53737882     1.73200
Fe251      Fe  0.23098039  0.50309433  0.50625491     1.54400
O252        O  0.18216391  0.46485677  0.98495152    -0.80400
O253        O  0.28565740  0.08771124  0.53063400    -0.78700
O254        O  0.15235571  0.49009532  0.96966558    -0.82900
O255        O  0.21324993  0.01440256  0.91544324    -0.77700
O256        O  0.20952537  0.49287289  0.56225607    -0.79500
O257        O  0.24259559  0.11041344  0.99327103    -0.82200
C258        C  0.23724100  0.00768316  0.91851355     0.98500
C259        C  0.15437550  0.46377332  0.97611730     1.06000
O260        O  0.22092001  0.03931695  0.49841642    -1.11200
O261        O  0.18832963  0.06535036  0.54677736    -0.73700
O262        O  0.17018344  0.06164366  0.98315578    -0.77100
O263        O  0.25178000  0.00926167  0.95194074    -0.77800
C264        C  0.17259041  0.07178117  0.51984349     0.97400
O265        O  0.22968654  0.08352070  0.93330622    -0.75800
O266        O  0.23262912  0.04559479  0.58817180    -0.81000
C267        C  0.29636687  0.06764460  0.53901242     1.00100
C268        C  0.22079841  0.01386632  0.59279298     1.06000
O269        O  0.27869908  0.03570880  0.53302484    -0.76600
C270        C  0.24238149  0.11047322  0.95420719     1.04300
Fe271      Fe  0.28663963  0.43393252  0.70231282     1.65800
Fe272      Fe  0.24323944  0.39567390  0.78772759     1.73200
Fe273      Fe  0.24882505  0.46828769  0.75739102     1.54400
O274        O  0.29744133  0.00583987  0.73557905    -0.80400
O275        O  0.19413630  0.38349136  0.78157520    -0.78700
O276        O  0.32584387  0.48004497  0.71989101    -0.82900
O277        O  0.26677499  0.45730751  0.66512174    -0.77700
O278        O  0.27028694  0.47799507  0.81334316    -0.79500
O279        O  0.23514462  0.36021013  0.74129765    -0.82200
C280        C  0.24273164  0.46397560  0.66787047     0.98500
C281        C  0.32497531  0.00654349  0.72629448     1.06000
O282        O  0.25879938  0.43220316  0.74856550    -1.11200
O283        O  0.29180530  0.40670072  0.79684874    -0.73700
O284        O  0.30838311  0.40889020  0.73297435    -0.77100
O285        O  0.22776848  0.46218971  0.70108633    -0.77800
C286        C  0.30741942  0.40002803  0.76997878     0.97400
O287        O  0.24974228  0.38800078  0.68187626    -0.75800
O288        O  0.24731818  0.42601610  0.83846069    -0.81000
C289        C  0.18307823  0.40339699  0.78928865     1.00100
C290        C  0.25874245  0.45768859  0.84289599     1.06000
O291        O  0.20050788  0.43528948  0.78273385    -0.76600
C292        C  0.23601095  0.36074544  0.70226479     1.04300
Fe293      Fe  0.04024491  0.33294308  0.86877664     1.65800
Fe294      Fe  0.07869608  0.32782800  0.95381140     1.73200
Fe295      Fe  0.00533321  0.26125910  0.92470493     1.54400
O296        O  0.46941954  0.27213861  0.90187143    -0.80400
O297        O  0.09015671  0.29040557  0.94773706    -0.78700
O298        O  0.49502049  0.32709146  0.88611451    -0.82900
O299        O  0.01646437  0.28941129  0.83215637    -0.77700
O300        O  0.49671338  0.27384127  0.97996457    -0.79500
O301        O  0.11406793  0.35472998  0.90704687    -0.82200
C302        C  0.00960723  0.25867799  0.83526659     0.98500
C303        C  0.46854560  0.29892217  0.89295424     1.06000
O304        O  0.04188592  0.30697812  0.91509942    -1.11200
O305        O  0.06828559  0.36571292  0.96297414    -0.73700
O306        O  0.06570955  0.37983156  0.89910186    -0.77100
O307        O  0.01110422  0.24559039  0.86867735    -0.77800
C308        C  0.07476848  0.38785894  0.93602163     0.97400
O309        O  0.08604272  0.34165518  0.84786687    -0.75800
O310        O  0.04827809  0.30336378  0.50592690    -0.81000
C311        C  0.06988825  0.25974977  0.95657410     1.00100
C312        C  0.01650127  0.28362460  0.51041117     1.06000
O313        O  0.03792128  0.24567364  0.95060303    -0.76600
C314        C  0.11340135  0.35511589  0.86803438     1.04300
Fe315      Fe  0.43790951  0.13811171  0.61838776     1.65800
Fe316      Fe  0.39962779  0.14201217  0.70431954     1.73200
Fe317      Fe  0.47252636  0.20923690  0.67499609     1.54400
O318        O  0.00935369  0.19874186  0.65206040    -0.80400
O319        O  0.38745819  0.17898252  0.69902477    -0.78700
O320        O  0.48387546  0.14451029  0.63559247    -0.82900
O321        O  0.46139667  0.18195028  0.58213078    -0.77700
O322        O  0.48188825  0.19603555  0.73023590    -0.79500
O323        O  0.36423518  0.11495788  0.65773244    -0.82200
C324        C  0.46810824  0.21260391  0.58569740     0.98500
C325        C  0.01022512  0.17195997  0.64322432     1.06000
O326        O  0.43621643  0.16351881  0.66524405    -1.11200
O327        O  0.41089589  0.10458748  0.71251574    -0.73700
O328        O  0.41273461  0.09091518  0.64825040    -0.77100
O329        O  0.46658825  0.22532451  0.61936219    -0.77800
C330        C  0.40412110  0.08260058  0.68526518     0.97400
O331        O  0.39208213  0.12952417  0.59833318    -0.75800
O332        O  0.42980775  0.16778164  0.75525728    -0.81000
C333        C  0.40752072  0.20976541  0.70750307     1.00100
C334        C  0.46155853  0.18764385  0.75973299     1.06000
O335        O  0.43950448  0.22415648  0.70127607    -0.76600
C336        C  0.36480828  0.11515586  0.61870252     1.04300
C337        C  0.49929226  0.23823123  0.79796759    -0.15100
C338        C  0.47522723  0.20512620  0.79872679    -0.30300
H339        H  0.50845374  0.25110474  0.76890420     0.13900
H340        H  0.46299154  0.19285755  0.82713858     0.14500
C341        C  0.50327296  0.26699740  0.54972615    -0.15100
C342        C  0.47874005  0.23406164  0.54918892    -0.30300
H343        H  0.01495545  0.27850058  0.57780890     0.13900
H344        H  0.46897592  0.22133732  0.52020729     0.14500
C345        C  0.15017622  0.38886044  0.81037246    -0.15100
C346        C  0.14570392  0.37155973  0.84544139    -0.30300
H347        H  0.13050323  0.39336932  0.79864607     0.13900
H348        H  0.16692495  0.37030770  0.85864534     0.14500
C349        C  0.35565789  0.03989394  0.72269691    -0.15100
C350        C  0.38069899  0.04686776  0.69574132    -0.30300
H351        H  0.35510907  0.06054355  0.73855821     0.13900
H352        H  0.37968634  0.02700444  0.67651193     0.14500
C353        C  0.22401331  0.49926456  0.63119043    -0.15100
C354        C  0.23267001  0.47490369  0.63096266    -0.30300
H355        H  0.22401108  0.51168085  0.65943059     0.13900
H356        H  0.23632375  0.46545327  0.60210175     0.14500
C357        C  0.25509401  0.47132254  0.88212880    -0.15100
C358        C  0.24642255  0.49567919  0.88179188    -0.30300
H359        H  0.25489293  0.45882053  0.91038461     0.13900
H360        H  0.24455215  0.00647923  0.85281905     0.14500
C361        C  0.32895658  0.08206084  0.56048784    -0.15100
C362        C  0.33256674  0.09818888  0.59624874    -0.30300
H363        H  0.34929957  0.07889304  0.54807135     0.13900
H364        H  0.31083360  0.09826051  0.60985724     0.14500
C365        C  0.12393709  0.43026964  0.97244237    -0.15100
C366        C  0.09826867  0.42348255  0.94665570    -0.30300
H367        H  0.12500154  0.40951074  0.98730030     0.13900
H368        H  0.09866964  0.44350823  0.92832956     0.14500
C369        C  0.05028034  0.15555012  0.61438523    -0.15100
C370        C  0.04363287  0.17472115  0.63984949    -0.30300
H371        H  0.03018391  0.13589082  0.59617738     0.13900
H372        H  0.06448823  0.19656618  0.65454979     0.14500
C373        C  0.10113393  0.25472602  0.51381151    -0.15100
C374        C  0.08412300  0.24139899  0.97820387    -0.30300
H375        H  0.10241957  0.27715367  0.52716086     0.13900
H376        H  0.08111946  0.21807581  0.96549785     0.14500
C377        C  0.23222184  0.32437091  0.64395635    -0.15100
C378        C  0.22014505  0.32843274  0.67985954    -0.30300
H379        H  0.25584075  0.34438331  0.63133830     0.13900
H380        H  0.19824044  0.30697033  0.69369846     0.14500
C381        C  0.17891941  0.12072280  0.55641780    -0.15100
C382        C  0.16022190  0.09509721  0.53053122    -0.30300
H383        H  0.20069146  0.12179549  0.57145240     0.13900
H384        H  0.14067040  0.09550270  0.51204723     0.14500
C385        C  0.37646996  0.21555855  0.76452537    -0.15100
C386        C  0.39306352  0.22801156  0.72891971    -0.30300
H387        H  0.37583901  0.19351364  0.77812062     0.13900
H388        H  0.39680603  0.25175589  0.71665530     0.14500
C389        C  0.42827337  0.31508091  0.86399199    -0.15100
C390        C  0.43508266  0.29615203  0.88968995    -0.30300
H391        H  0.44828239  0.33455030  0.84542561     0.13900
H392        H  0.41428474  0.27446376  0.90477032     0.14500
C393        C  0.23564176  0.24283607  0.96550730    -0.15100
C394        C  0.26885977  0.25215914  0.96618075    -0.30300
H395        H  0.22279415  0.23921365  0.93647717     0.13900
H396        H  0.28110076  0.25213992  0.99455355     0.14500
C397        C  0.24209738  0.22775237  0.71575640    -0.15100
C398        C  0.20909816  0.21925009  0.71582128    -0.30300
H399        H  0.25520544  0.23106836  0.68693928     0.13900
H400        H  0.19667662  0.21958286  0.74394832     0.14500
C401        C  0.24574058  0.14713520  0.89635305    -0.15100
C402        C  0.25772612  0.14309478  0.93233464    -0.30300
H403        H  0.22249777  0.12686932  0.88338901     0.13900
H404        H  0.27928697  0.16467810  0.94642761     0.14500
C405        C  0.31934029  0.37637148  0.78073438    -0.15100
C406        C  0.30016946  0.35068219  0.80640590    -0.30300
H407        H  0.33896651  0.37584017  0.76247470     0.13900
H408        H  0.27836082  0.34979728  0.82117613     0.14500
Fe409      Fe  0.33771908  0.78273570  0.28569875     1.65200
Fe410      Fe  0.33255143  0.73970335  0.37120847     1.73200
Fe411      Fe  0.26568686  0.74574530  0.34113748     1.54400
O412        O  0.27616233  0.79286982  0.31876036    -0.80400
O413        O  0.29537143  0.69076794  0.36503207    -0.78700
O414        O  0.33123605  0.82214069  0.30325395    -0.82900
O415        O  0.29432015  0.76288627  0.24864973    -0.77700
O416        O  0.27785304  0.76751962  0.39687203    -0.79500
O417        O  0.35993947  0.73148938  0.32487056    -0.82200
C418        C  0.26357843  0.73891048  0.25167129     0.98500
C419        C  0.30308202  0.82048712  0.31003168     1.06000
O420        O  0.31163073  0.75528777  0.33209648    -1.11200
O421        O  0.37032359  0.78812312  0.38030245    -0.73700
O422        O  0.38457746  0.80434622  0.31629231    -0.77100
O423        O  0.25045210  0.72436454  0.28508381    -0.77800
C424        C  0.39256878  0.80365088  0.35332870     0.97400
O425        O  0.34645901  0.74565146  0.26540862    -0.75800
O426        O  0.30642724  0.74404765  0.42187651    -0.81000
C427        C  0.26448552  0.67999177  0.37313695     1.00100
C428        C  0.28650088  0.75585783  0.42637698     1.06000
O429        O  0.25015516  0.69756930  0.36678244    -0.76600
C430        C  0.36029987  0.73229304  0.28585071     1.04300
Fe431      Fe  0.14095288  0.68851395  0.03560449     1.65800
Fe432      Fe  0.14582217  0.73107904  0.12147675     1.73200
Fe433      Fe  0.21270251  0.72489304  0.09144822     1.54400
O434        O  0.20230319  0.67790682  0.06852006    -0.80400
O435        O  0.18320925  0.78005628  0.11601193    -0.78700
O436        O  0.14732543  0.64885083  0.05271533    -0.82900
O437        O  0.18456739  0.70856437  0.99887712    -0.77700
O438        O  0.20010030  0.70268060  0.14698904    -0.79500
O439        O  0.11889929  0.73995313  0.07509797    -0.82200
C440        C  0.21535123  0.73236056  0.00211698     0.98500
C441        C  0.17544976  0.65038792  0.05935866     1.06000
O442        O  0.16685584  0.71562584  0.08224834    -1.11200
O443        O  0.10787484  0.68263327  0.13000778    -0.73700
O444        O  0.09390073  0.66679676  0.06590801    -0.77100
O445        O  0.22836202  0.74669086  0.03561823    -0.77800
C446        C  0.08574380  0.66747189  0.10289611     0.97400
O447        O  0.13232235  0.72583110  0.01552981    -0.75800
O448        O  0.17158571  0.72620368  0.17212118    -0.81000
C449        C  0.21408123  0.79067267  0.12396513     1.00100
C450        C  0.19154890  0.71442725  0.17651822     1.06000
O451        O  0.22824616  0.77294280  0.11750796    -0.76600
C452        C  0.11869758  0.73941070  0.03605029     1.04300
Fe453      Fe  0.19299553  0.53748090  0.45173877     1.65800
Fe454      Fe  0.23353208  0.57382136  0.03884297     1.73200
Fe455      Fe  0.22983581  0.00239236  0.00786670     1.54400
O456        O  0.18329919  0.96620014  0.48527056    -0.80400
O457        O  0.28282466  0.58648899  0.03376929    -0.78700
O458        O  0.15392397  0.99173678  0.46930416    -0.82900
O459        O  0.21291030  0.51426694  0.41429139    -0.77700
O460        O  0.20753720  0.99179690  0.06339174    -0.79500
O461        O  0.24414533  0.61104751  0.49106988    -0.82200
C462        C  0.23707803  0.50778500  0.41688378     0.98500
C463        C  0.15567144  0.96530373  0.47604583     1.06000
O464        O  0.21895581  0.53780076  0.99914124    -1.11200
O465        O  0.18468667  0.56225919  0.04702813    -0.73700
O466        O  0.17111151  0.56232893  0.48257699    -0.77100
O467        O  0.25219695  0.50978738  0.44996562    -0.77800
C468        C  0.16986891  0.56963577  0.01989763     0.97400
O469        O  0.22983723  0.58355411  0.43148845    -0.75800
O470        O  0.22898981  0.54297183  0.08926921    -0.81000
C471        C  0.29404317  0.56667797  0.04123334     1.00100
C472        C  0.21775445  0.51128292  0.09312135     1.06000
O473        O  0.27693149  0.53484813  0.03407419    -0.76600
C474        C  0.24328379  0.61070222  0.45203784     1.04300
Fe475      Fe  0.28637850  0.93360797  0.20243380     1.65800
Fe476      Fe  0.24346706  0.89549857  0.28815124     1.73200
Fe477      Fe  0.24850095  0.96776033  0.25764823     1.54400
O478        O  0.29426946  0.50447206  0.23307008    -0.80400
O479        O  0.19424614  0.88284974  0.28195159    -0.78700
O480        O  0.32547407  0.97992853  0.21973231    -0.82900
O481        O  0.26606322  0.95660988  0.16528661    -0.77700
O482        O  0.27035166  0.97768638  0.31330811    -0.79500
O483        O  0.23568815  0.85992625  0.24198656    -0.82200
C484        C  0.24194905  0.96316773  0.16825710     0.98500
C485        C  0.32231887  0.50592538  0.22477414     1.06000
O486        O  0.25862433  0.93182094  0.24876644    -1.11200
O487        O  0.29223466  0.90722221  0.29715066    -0.73700
O488        O  0.30851030  0.90902115  0.23320422    -0.77100
O489        O  0.22714626  0.96139641  0.20158282    -0.77800
C490        C  0.30779175  0.90046942  0.27029489     0.97400
O491        O  0.24963969  0.88737794  0.18233594    -0.75800
O492        O  0.24726223  0.92584682  0.33874144    -0.81000
C493        C  0.18301962  0.90263802  0.28954477     1.00100
C494        C  0.25880089  0.95754325  0.34297766     1.06000
O495        O  0.20034268  0.93455161  0.28312348    -0.76600
C496        C  0.23634698  0.86022395  0.20294857     1.04300
Fe497      Fe  0.04059473  0.83368919  0.36913414     1.65800
Fe498      Fe  0.07900820  0.82875411  0.45437718     1.73200
Fe499      Fe  0.00512595  0.76243906  0.42584987     1.54400
O500        O  0.46910207  0.77334359  0.40316919    -0.80400
O501        O  0.08989586  0.79091882  0.44877317    -0.78700
O502        O  0.49507675  0.82819790  0.38687974    -0.82900
O503        O  0.01644617  0.78993587  0.33292599    -0.77700
O504        O  0.49646996  0.77530390  0.48106845    -0.79500
O505        O  0.11433025  0.85494505  0.40739453    -0.82200
C506        C  0.00927875  0.75912293  0.33629413     0.98500
C507        C  0.46848121  0.80020294  0.39399992     1.06000
O508        O  0.04199495  0.80793006  0.41582467    -1.11200
O509        O  0.06939649  0.86724906  0.46304620    -0.73700
O510        O  0.06662699  0.88085578  0.39897384    -0.77100
O511        O  0.01034158  0.74604641  0.36992701    -0.77800
C512        C  0.07597763  0.88920260  0.43578169     0.97400
O513        O  0.08609554  0.84156365  0.34836494    -0.75800
O514        O  0.04841499  0.80385556  0.00516592    -0.81000
C515        C  0.06944340  0.76034876  0.45777686     1.00100
C516        C  0.01670761  0.78363730  0.00948109     1.06000
O517        O  0.03746929  0.74651858  0.45189562    -0.76600
C518        C  0.11350704  0.85491417  0.36839499     1.04300
Fe519      Fe  0.43691076  0.63738829  0.11934936     1.65800
Fe520      Fe  0.39902474  0.64289330  0.20488828     1.73200
Fe521      Fe  0.47250329  0.70930664  0.17485545     1.54400
O522        O  0.00951002  0.69903830  0.15218964    -0.80400
O523        O  0.38790792  0.68046698  0.19841365    -0.78700
O524        O  0.48294719  0.64362159  0.13634921    -0.82900
O525        O  0.46046866  0.68063268  0.08224256    -0.77700
O526        O  0.48178611  0.69703407  0.23075222    -0.79500
O527        O  0.36327659  0.61583924  0.15868216    -0.82200
C528        C  0.46772962  0.71147042  0.08528363     0.98500
C529        C  0.01018425  0.67223888  0.14283330     1.06000
O530        O  0.43579629  0.66349265  0.16585266    -1.11200
O531        O  0.40877250  0.60451768  0.21411607    -0.73700
O532        O  0.41165814  0.59071365  0.15007547    -0.77100
O533        O  0.46672617  0.72476364  0.11872173    -0.77800
C534        C  0.40253437  0.58253702  0.18697986     0.97400
O535        O  0.39097826  0.62880917  0.09922248    -0.75800
O536        O  0.42957327  0.66877365  0.25560090    -0.81000
C537        C  0.40821485  0.71121095  0.20665168     1.00100
C538        C  0.46134669  0.68857769  0.26017980     1.06000
O539        O  0.44014121  0.72526701  0.20040078    -0.76600
C540        C  0.36372392  0.61533583  0.11967826     1.04300
C541        C  0.49918383  0.73886221  0.29902946    -0.15100
C542        C  0.47492940  0.70581124  0.29938591    -0.30300
H543        H  0.50871361  0.75184526  0.27009764     0.13900
H544        H  0.46238243  0.69346270  0.32763249     0.14500
C545        C  0.50309703  0.76538435  0.04862971    -0.15100
C546        C  0.47845668  0.73249954  0.04843043    -0.30300
H547        H  0.01541554  0.77892410  0.07693674     0.13900
H548        H  0.46865197  0.71951539  0.01959583     0.14500
C549        C  0.15009218  0.88800797  0.31047035    -0.15100
C550        C  0.14567579  0.87087180  0.34562993    -0.30300
H551        H  0.13045418  0.89257852  0.29875727     0.13900
H552        H  0.16687842  0.86960778  0.35887335     0.14500
C553        C  0.35256183  0.53964346  0.22168608    -0.15100
C554        C  0.37912454  0.54680612  0.19724193    -0.30300
H555        H  0.35078195  0.56023009  0.23592461     0.13900
H556        H  0.37956178  0.52698293  0.17938442     0.14500
C557        C  0.22208656  0.99775556  0.13225458    -0.15100
C558        C  0.23162926  0.97405343  0.13154190    -0.30300
H559        H  0.22158505  0.00965900  0.16071022     0.13900
H560        H  0.23574822  0.96519673  0.10250132     0.14500
C561        C  0.25532569  0.97143175  0.38204603    -0.15100
C562        C  0.24721847  0.99618125  0.38144928    -0.30300
H563        H  0.25484481  0.95889553  0.41038948     0.13900
H564        H  0.24273829  0.50541136  0.35106991     0.14500
C565        C  0.32686759  0.58126556  0.06242087    -0.15100
C566        C  0.33132206  0.59868292  0.09738177    -0.30300
H567        H  0.34660417  0.57681751  0.05071631     0.13900
H568        H  0.31008783  0.59991900  0.11063744     0.14500
C569        C  0.12507457  0.93185597  0.47239093    -0.15100
C570        C  0.09971914  0.92493518  0.44599486    -0.30300
H571        H  0.12579679  0.91116109  0.48790312     0.13900
H572        H  0.10047711  0.94485361  0.42709995     0.14500
C573        C  0.05010139  0.65574964  0.11341494    -0.15100
C574        C  0.04353553  0.67482486  0.13917693    -0.30300
H575        H  0.02998526  0.63632088  0.09500130     0.13900
H576        H  0.06445295  0.69645447  0.15411104     0.14500
C577        C  0.10226776  0.75546296  0.01380778    -0.15100
C578        C  0.08356353  0.74179042  0.47928024    -0.30300
H579        H  0.10299792  0.77747298  0.02764577     0.13900
H580        H  0.07908003  0.71764970  0.46750068     0.14500
C581        C  0.23271266  0.82347371  0.14503651    -0.15100
C582        C  0.22066331  0.82772951  0.18086259    -0.30300
H583        H  0.25623912  0.84348331  0.13222786     0.13900
H584        H  0.19881571  0.80630473  0.19484257     0.14500
C585        C  0.17803665  0.61964930  0.05562093    -0.15100
C586        C  0.15848926  0.59378428  0.03039668    -0.30300
H587        H  0.19986632  0.62043184  0.07012215     0.13900
H588        H  0.13883895  0.59436899  0.01231810     0.14500
C589        C  0.37721003  0.71688014  0.26350549    -0.15100
C590        C  0.39403962  0.72963254  0.22812925    -0.30300
H591        H  0.37643773  0.69469252  0.27687580     0.13900
H592        H  0.39794313  0.75349184  0.21605476     0.14500
C593        C  0.42827880  0.81595837  0.36405587    -0.15100
C594        C  0.43514410  0.79767834  0.39072569    -0.30300
H595        H  0.44826239  0.83495280  0.34500838     0.13900
H596        H  0.41440178  0.77639977  0.40644422     0.14500
C597        C  0.23632218  0.74374087  0.46531389    -0.15100
C598        C  0.26933236  0.75235121  0.46560582    -0.30300
H599        H  0.22336237  0.74048259  0.43644002     0.13900
H600        H  0.28159434  0.75192662  0.49378719     0.14500
C601        C  0.24242624  0.72837370  0.21489584    -0.15100
C602        C  0.20902972  0.71829746  0.21553670    -0.30300
H603        H  0.25547527  0.73258647  0.18586330     0.13900
H604        H  0.19645722  0.71767857  0.24393150     0.14500
C605        C  0.24612059  0.64728293  0.39445071    -0.15100
C606        C  0.25878169  0.64310226  0.42979966    -0.30300
H607        H  0.22226214  0.62734162  0.38234034     0.13900
H608        H  0.28094821  0.66449027  0.44324792     0.14500
C609        C  0.31973552  0.87688598  0.28112997    -0.15100
C610        C  0.30052945  0.85120192  0.30677185    -0.30300
H611        H  0.33928457  0.87628287  0.26278428     0.13900
H612        H  0.27876602  0.85034555  0.32163046     0.14500
Fe613      Fe  0.33775191  0.78192017  0.78579303     1.65200
Fe614      Fe  0.33287538  0.73884458  0.87137299     1.73200
Fe615      Fe  0.26593612  0.74485049  0.84158823     1.54400
O616        O  0.27625631  0.79197107  0.81913261    -0.80400
O617        O  0.29572280  0.68975312  0.86581976    -0.78700
O618        O  0.33124087  0.82138936  0.80327153    -0.82900
O619        O  0.29423106  0.76203816  0.74901489    -0.77700
O620        O  0.27840022  0.76675751  0.89723589    -0.79500
O621        O  0.36006604  0.73055560  0.82477986    -0.82200
C622        C  0.26347002  0.73812766  0.75211436     0.98500
C623        C  0.30302721  0.81962919  0.81004144     1.06000
O624        O  0.31181267  0.75436193  0.83228291    -1.11200
O625        O  0.37051032  0.78736403  0.88008265    -0.73700
O626        O  0.38470959  0.80357651  0.81607669    -0.77100
O627        O  0.25044354  0.72345675  0.78552086    -0.77800
C628        C  0.39272619  0.80275496  0.85305451     0.97400
O629        O  0.34652932  0.74485750  0.76542137    -0.75800
O630        O  0.30691640  0.74323694  0.92221593    -0.81000
C631        C  0.26482097  0.67902176  0.87385414     1.00100
C632        C  0.28695586  0.75500694  0.92672644     1.06000
O633        O  0.25055410  0.69665872  0.86734938    -0.76600
C634        C  0.36036787  0.73142482  0.78574845     1.04300
Fe635      Fe  0.14091623  0.68869516  0.53569757     1.65800
Fe636      Fe  0.14555723  0.73112450  0.62174416     1.73200
Fe637      Fe  0.21273568  0.72561780  0.59152706     1.54400
O638        O  0.20267897  0.67871374  0.56878687    -0.80400
O639        O  0.18255980  0.78026599  0.61636828    -0.78700
O640        O  0.14781123  0.64927254  0.55251708    -0.82900
O641        O  0.18441020  0.70914543  0.49884115    -0.77700
O642        O  0.20041918  0.70351070  0.64716434    -0.79500
O643        O  0.11827231  0.73963567  0.57545566    -0.82200
C644        C  0.21513922  0.73303580  0.50206592     0.98500
C645        C  0.17603785  0.65109196  0.55938916     1.06000
O646        O  0.16678003  0.71597947  0.58235212    -1.11200
O647        O  0.10812103  0.68246564  0.63016668    -0.73700
O648        O  0.09395836  0.66659205  0.56612192    -0.77100
O649        O  0.22819753  0.74730137  0.53558880    -0.77800
C650        C  0.08592250  0.66730488  0.60313853     0.97400
O651        O  0.13169325  0.72566069  0.51578171    -0.75800
O652        O  0.17158057  0.72661748  0.67241216    -0.81000
C653        C  0.21351649  0.79113424  0.62411518     1.00100
C654        C  0.19173082  0.71505850  0.67676961     1.06000
O655        O  0.22791152  0.77364394  0.61743189    -0.76600
C656        C  0.11787096  0.73898571  0.53640713     1.04300
Fe657      Fe  0.19168594  0.53633081  0.95254430     1.65800
Fe658      Fe  0.23605250  0.57537541  0.53726118     1.73200
Fe659      Fe  0.23046424  0.00296204  0.50755321     1.54400
O660        O  0.18300638  0.96547241  0.98478725    -0.80400
O661        O  0.28519226  0.58772024  0.53101853    -0.78700
O662        O  0.15335761  0.99081890  0.96919034    -0.82900
O663        O  0.21200743  0.51315407  0.91560470    -0.77700
O664        O  0.20875386  0.99349169  0.56341020    -0.79500
O665        O  0.24207451  0.60972338  0.99258594    -0.82200
C666        C  0.23609074  0.50655891  0.91857830     0.98500
C667        C  0.15530113  0.96445809  0.97561279     1.06000
O668        O  0.22073769  0.53906125  0.49790439    -1.11200
O669        O  0.18746654  0.56436912  0.54647291    -0.73700
O670        O  0.16952914  0.56119241  0.98283947    -0.77100
O671        O  0.25085859  0.50839950  0.95192037    -0.77800
C672        C  0.17193958  0.57110519  0.51958698     0.97400
O673        O  0.22884201  0.58249048  0.93281221    -0.75800
O674        O  0.23183901  0.54469590  0.58771325    -0.81000
C675        C  0.29635955  0.56788384  0.53851410     1.00100
C676        C  0.22065460  0.51303659  0.59194078     1.06000
O677        O  0.27914647  0.53605196  0.53164683    -0.76600
C678        C  0.24189922  0.60957708  0.95350159     1.04300
Fe679      Fe  0.28683970  0.93397308  0.70242375     1.65800
Fe680      Fe  0.24357396  0.89623181  0.78817178     1.73200
Fe681      Fe  0.25015830  0.96934067  0.75788131     1.54400
O682        O  0.29600889  0.50524955  0.73526850    -0.80400
O683        O  0.19467805  0.88472881  0.78214768    -0.78700
O684        O  0.32655009  0.98002703  0.71943184    -0.82900
O685        O  0.26715503  0.95761972  0.66528305    -0.77700
O686        O  0.27180694  0.97880866  0.81370234    -0.79500
O687        O  0.23494273  0.86048534  0.74190102    -0.82200
C688        C  0.24357255  0.96494995  0.66829166     0.98500
C689        C  0.32382163  0.50634682  0.72647665     1.06000
O690        O  0.25945549  0.93278374  0.74891312    -1.11200
O691        O  0.29190989  0.90645586  0.79716518    -0.73700
O692        O  0.30830312  0.90864127  0.73315089    -0.77100
O693        O  0.22900432  0.96361393  0.70168167    -0.77800
C694        C  0.30735894  0.89969490  0.77014177     0.97400
O695        O  0.24950864  0.88805554  0.68235044    -0.75800
O696        O  0.24809358  0.92681037  0.83885241    -0.81000
C697        C  0.18405335  0.90495213  0.79007861     1.00100
C698        C  0.25986660  0.95854384  0.84323985     1.06000
O699        O  0.20179014  0.93682187  0.78347895    -0.76600
C700        C  0.23571833  0.86086249  0.70287019     1.04300
Fe701      Fe  0.04122688  0.83423239  0.86842786     1.65800
Fe702      Fe  0.07899778  0.82975704  0.95450475     1.73200
Fe703      Fe  0.00647787  0.76251101  0.92422165     1.54400
O704        O  0.46915945  0.77150046  0.90172751    -0.80400
O705        O  0.09138788  0.79291006  0.94957940    -0.78700
O706        O  0.49479092  0.82650637  0.88640574    -0.82900
O707        O  0.01770445  0.79071292  0.83168531    -0.77700
O708        O  0.49646341  0.77392137  0.97992974    -0.79500
O709        O  0.11472891  0.85693146  0.90804727    -0.82200
C710        C  0.01091677  0.76001091  0.83484085     0.98500
C711        C  0.46830921  0.79829362  0.89291264     1.06000
O712        O  0.04272542  0.80842081  0.91508157    -1.11200
O713        O  0.06757329  0.86704822  0.96268723    -0.73700
O714        O  0.06640934  0.88123893  0.89854974    -0.77100
O715        O  0.01272365  0.74712672  0.86823867    -0.77800
C716        C  0.07490966  0.88926007  0.93559449     0.97400
O717        O  0.08727481  0.84305579  0.84841940    -0.75800
O718        O  0.04880310  0.80367687  0.50562681    -0.81000
C719        C  0.07135966  0.76190948  0.95710058     1.00100
C720        C  0.01699136  0.78437214  0.51052295     1.06000
O721        O  0.03948234  0.74742089  0.95011206    -0.76600
C722        C  0.11443681  0.85706099  0.86898984     1.04300
Fe723      Fe  0.43807692  0.63742911  0.61897002     1.65800
Fe724      Fe  0.39942078  0.64255027  0.70387694     1.73200
Fe725      Fe  0.47283829  0.70905254  0.67464427     1.54400
O726        O  0.00992962  0.69953928  0.65203561    -0.80400
O727        O  0.38803215  0.67993992  0.69725378    -0.78700
O728        O  0.48385626  0.64370010  0.63694280    -0.82900
O729        O  0.46199316  0.68097576  0.58222825    -0.77700
O730        O  0.48190024  0.69614050  0.73020870    -0.79500
O731        O  0.36417827  0.61554906  0.65716301    -0.82200
C732        C  0.46867602  0.71165628  0.58533008     0.98500
C733        C  0.01071844  0.67280762  0.64262527     1.06000
O734        O  0.43635299  0.66333791  0.66522158    -1.11200
O735        O  0.40970107  0.60460942  0.71335486    -0.73700
O736        O  0.41249229  0.59055142  0.64947993    -0.77100
O737        O  0.46696948  0.72462317  0.61871158    -0.77800
C738        C  0.40338130  0.58249212  0.68642956     0.97400
O739        O  0.39246603  0.62895316  0.59807479    -0.75800
O740        O  0.42959850  0.66835933  0.75481671    -0.81000
C741        C  0.40824407  0.71056784  0.70613842     1.00100
C742        C  0.46140738  0.68781438  0.75954728     1.06000
O743        O  0.44023998  0.72464339  0.70042560    -0.76600
C744        C  0.36503122  0.61535295  0.61815220     1.04300
C745        C  0.49961075  0.73782842  0.79830003    -0.15100
C746        C  0.47502396  0.70493274  0.79872694    -0.30300
H747        H  0.50931279  0.75076053  0.76937446     0.13900
H748        H  0.46230395  0.69272604  0.82695662     0.14500
C749        C  0.50320812  0.76615527  0.54945366    -0.15100
C750        C  0.47955644  0.73292053  0.54868816    -0.30300
H751        H  0.01628349  0.77927804  0.57790654     0.13900
H752        H  0.47060030  0.72003857  0.51962856     0.14500
C753        C  0.15128567  0.89076308  0.81139364    -0.15100
C754        C  0.14692030  0.87386154  0.84677294    -0.30300
H755        H  0.13143522  0.89480434  0.79922771     0.13900
H756        H  0.16823485  0.87297056  0.86029029     0.14500
C757        C  0.35428618  0.53987146  0.72298546    -0.15100
C758        C  0.38000452  0.54681813  0.69711830    -0.30300
H759        H  0.35314329  0.56054973  0.73794285     0.13900
H760        H  0.37967916  0.52687426  0.67870675     0.14500
C761        C  0.22461955  0.00025224  0.63192890    -0.15100
C762        C  0.23350427  0.97605005  0.63147425    -0.30300
H763        H  0.22466737  0.01261930  0.66022962     0.13900
H764        H  0.23708439  0.96669448  0.60250065     0.14500
C765        C  0.25612641  0.97229688  0.88232462    -0.15100
C766        C  0.24771490  0.99684490  0.88180063    -0.30300
H767        H  0.25558019  0.95968654  0.91063004     0.13900
H768        H  0.24295511  0.50517297  0.85286954     0.14500
C769        C  0.32904535  0.58237034  0.55986173    -0.15100
C770        C  0.33290690  0.59889679  0.59538536    -0.30300
H771        H  0.34907527  0.57849180  0.54789282     0.13900
H772        H  0.31138102  0.59955134  0.60870700     0.14500
C773        C  0.12479509  0.93102730  0.97151967    -0.15100
C774        C  0.09897354  0.92472610  0.94620755    -0.30300
H775        H  0.12569575  0.91000541  0.98588412     0.13900
H776        H  0.09948078  0.94498723  0.92827324     0.14500
C777        C  0.05039101  0.65584162  0.61372991    -0.15100
C778        C  0.04407442  0.67547623  0.63882291    -0.30300
H779        H  0.03014321  0.63604902  0.59582928     0.13900
H780        H  0.06511370  0.69739504  0.65317199     0.14500
C781        C  0.10103765  0.75466484  0.51424335    -0.15100
C782        C  0.08571481  0.74337289  0.97814119    -0.30300
H783        H  0.10242275  0.77718125  0.52744755     0.13900
H784        H  0.08180734  0.71964165  0.96564878     0.14500
C785        C  0.23205154  0.82396191  0.64516938    -0.15100
C786        C  0.21967983  0.82843726  0.68062993    -0.30300
H787        H  0.25599551  0.84369857  0.63290684     0.13900
H788        H  0.19743985  0.80722157  0.69428525     0.14500
C789        C  0.17906758  0.62059993  0.55566543    -0.15100
C790        C  0.15991126  0.59471412  0.53028511    -0.30300
H791        H  0.20101420  0.62170182  0.57025568     0.13900
H792        H  0.14011097  0.59499142  0.51218735     0.14500
C793        C  0.37724075  0.71602941  0.76322639    -0.15100
C794        C  0.39390412  0.72878824  0.72775322    -0.30300
H795        H  0.37662944  0.69390633  0.77655459     0.13900
H796        H  0.39761165  0.75257793  0.71569149     0.14500
C797        C  0.42833261  0.81460469  0.86364235    -0.15100
C798        C  0.43490105  0.79550446  0.88931975    -0.30300
H799        H  0.44847359  0.83417274  0.84531521     0.13900
H800        H  0.41399757  0.77372674  0.90413804     0.14500
C801        C  0.23664856  0.74288173  0.96544388    -0.15100
C802        C  0.26963735  0.75137622  0.96589252    -0.30300
H803        H  0.22379411  0.73969344  0.93650658     0.13900
H804        H  0.28179304  0.75088588  0.99413452     0.14500
C805        C  0.24225817  0.72783637  0.71537996    -0.15100
C806        C  0.20909011  0.71871835  0.71589543    -0.30300
H807        H  0.25524773  0.73157252  0.68638732     0.13900
H808        H  0.19669743  0.71862188  0.74423202     0.14500
C809        C  0.24622858  0.64620254  0.89504258    -0.15100
C810        C  0.25773035  0.64213378  0.93137383    -0.30300
H811        H  0.22310112  0.62596459  0.88182289     0.13900
H812        H  0.27915930  0.66370490  0.94567472     0.14500
C813        C  0.31926264  0.87596779  0.78074676    -0.15100
C814        C  0.30019437  0.85023294  0.80644630    -0.30300
H815        H  0.33886624  0.87547958  0.76239350     0.13900
H816        H  0.27840198  0.84929842  0.82132147     0.14500
Fe817      Fe  0.83810529  0.28324692  0.28534715     1.65200
Fe818      Fe  0.83284995  0.24033736  0.37098869     1.73200
Fe819      Fe  0.76598496  0.24624116  0.34063247     1.54400
O820        O  0.77653052  0.29339844  0.31825630    -0.80400
O821        O  0.79578124  0.19136572  0.36476373    -0.78700
O822        O  0.83161852  0.32266005  0.30275698    -0.82900
O823        O  0.79477601  0.26344343  0.24817149    -0.77700
O824        O  0.77793657  0.26794218  0.39640373    -0.79500
O825        O  0.86041628  0.23221149  0.32478837    -0.82200
C826        C  0.76403146  0.23947237  0.25116125     0.98500
C827        C  0.80345788  0.32100358  0.30948421     1.06000
O828        O  0.81195334  0.25584090  0.33174591    -1.11200
O829        O  0.87048607  0.28882538  0.38009746    -0.73700
O830        O  0.88490953  0.30486260  0.31607173    -0.77100
O831        O  0.75090134  0.22489622  0.28455393    -0.77800
C832        C  0.89280766  0.30425689  0.35317055     0.97400
O833        O  0.84681641  0.24610205  0.26522591    -0.75800
O834        O  0.80648529  0.24449226  0.42152034    -0.81000
C835        C  0.76484928  0.18050767  0.37269427     1.00100
C836        C  0.78639304  0.25611458  0.42590366     1.06000
O837        O  0.75047068  0.19803434  0.36623818    -0.76600
C838        C  0.86073550  0.23287182  0.28576273     1.04300
Fe839      Fe  0.64033135  0.18791582  0.03579075     1.65800
Fe840      Fe  0.64568411  0.23100831  0.12136958     1.73200
Fe841      Fe  0.71237247  0.22467395  0.09098296     1.54400
O842        O  0.70186636  0.17756557  0.06815960    -0.80400
O843        O  0.68303046  0.27998004  0.11539992    -0.78700
O844        O  0.64677667  0.14834089  0.05297506    -0.82900
O845        O  0.68369811  0.20777747  0.99867809    -0.77700
O846        O  0.70018788  0.20275970  0.14670867    -0.79500
O847        O  0.61842435  0.23953195  0.07506667    -0.82200
C848        C  0.71442096  0.23175096  0.00162498     0.98500
C849        C  0.67498881  0.14997420  0.05921583     1.06000
O850        O  0.66646711  0.21528284  0.08215664    -1.11200
O851        O  0.60781421  0.18261089  0.13044481    -0.73700
O852        O  0.59348046  0.16635083  0.06651427    -0.77100
O853        O  0.72756070  0.24627757  0.03499250    -0.77800
C854        C  0.58554002  0.16718507  0.10355744     0.97400
O855        O  0.63169045  0.22512927  0.01559652    -0.75800
O856        O  0.67179582  0.22643130  0.17185590    -0.81000
C857        C  0.71390093  0.29059107  0.12335835     1.00100
C858        C  0.69177898  0.21466609  0.17621614     1.06000
O859        O  0.72802872  0.27282256  0.11690363    -0.76600
C860        C  0.61805593  0.23872918  0.03602081     1.04300
Fe861      Fe  0.69345244  0.03770066  0.45059251     1.65800
Fe862      Fe  0.73314405  0.07396399  0.03818010     1.73200
Fe863      Fe  0.73016281  0.50249972  0.00643892     1.54400
O864        O  0.68407434  0.46649125  0.48418682    -0.80400
O865        O  0.78267319  0.08733611  0.03342767    -0.78700
O866        O  0.65444868  0.49186742  0.46876431    -0.82900
O867        O  0.71361816  0.01474040  0.41316269    -0.77700
O868        O  0.70820697  0.49179677  0.06216383    -0.79500
O869        O  0.74428506  0.11115292  0.49036091    -0.82200
C870        C  0.73792245  0.00846825  0.41577749     0.98500
C871        C  0.65633722  0.46548635  0.47529295     1.06000
O872        O  0.71909839  0.03825843  0.99816064    -1.11200
O873        O  0.68409102  0.06173479  0.04622866    -0.73700
O874        O  0.67130656  0.06228337  0.48141927    -0.77100
O875        O  0.75303124  0.01051103  0.44887682    -0.77800
C876        C  0.66932066  0.06927445  0.01923044     0.97400
O877        O  0.73025936  0.08390109  0.43061098    -0.75800
O878        O  0.72871822  0.04288050  0.08833413    -0.81000
C879        C  0.79429580  0.06778651  0.04039457     1.00100
C880        C  0.71792450  0.01123940  0.09188239     1.06000
O881        O  0.77756443  0.03602350  0.03274967    -0.76600
C882        C  0.74355587  0.11096773  0.45131870     1.04300
Fe883      Fe  0.78645566  0.43365521  0.20160927     1.65800
Fe884      Fe  0.74386686  0.39577127  0.28765611     1.73200
Fe885      Fe  0.74860018  0.46784534  0.25685877     1.54400
O886        O  0.79374380  0.00432630  0.23171198    -0.80400
O887        O  0.69453172  0.38294781  0.28201791    -0.78700
O888        O  0.82554411  0.48008292  0.21856276    -0.82900
O889        O  0.76596049  0.45645225  0.16446263    -0.77700
O890        O  0.77059553  0.47799558  0.31246176    -0.79500
O891        O  0.73591880  0.36004123  0.24153951    -0.82200
C892        C  0.74186069  0.46302296  0.16745128     0.98500
C893        C  0.82187248  0.00589049  0.22364794     1.06000
O894        O  0.75877367  0.43193195  0.24804908    -1.11200
O895        O  0.79274233  0.40775454  0.29631364    -0.73700
O896        O  0.80880150  0.40928075  0.23234354    -0.77100
O897        O  0.72711645  0.46133127  0.20080841    -0.77800
C898        C  0.80821175  0.40089312  0.26946898     0.97400
O899        O  0.74974344  0.38731960  0.18176632    -0.75800
O900        O  0.74785769  0.42626713  0.33816059    -0.81000
C901        C  0.68328432  0.40275242  0.28944938     1.00100
C902        C  0.75928867  0.45795597  0.34225472     1.06000
O903        O  0.70051951  0.43462142  0.28261395    -0.76600
C904        C  0.73650344  0.36022038  0.20248357     1.04300
Fe905      Fe  0.54079221  0.33412541  0.36921809     1.65800
Fe906      Fe  0.57905408  0.32905356  0.45457160     1.73200
Fe907      Fe  0.50527583  0.26276030  0.42574161     1.54400
O908        O  0.96902310  0.27344551  0.40294847    -0.80400
O909        O  0.58998299  0.29124976  0.44890149    -0.78700
O910        O  0.99511868  0.32835184  0.38686104    -0.82900
O911        O  0.51668822  0.29047518  0.33288264    -0.77700
O912        O  0.99618708  0.27524504  0.48095672    -0.79500
O913        O  0.61449874  0.35536581  0.40766416    -0.82200
C914        C  0.50957213  0.25968703  0.33625056     0.98500
C915        C  0.96847614  0.30036023  0.39384509     1.06000
O916        O  0.54211103  0.30830421  0.41591926    -1.11200
O917        O  0.56942939  0.36754815  0.46324141    -0.73700
O918        O  0.56676138  0.38120631  0.39915008    -0.77100
O919        O  0.51072971  0.24664018  0.36983975    -0.77800
C920        C  0.57610333  0.38951576  0.43595821     0.97400
O921        O  0.58637418  0.34206507  0.34855670    -0.75800
O922        O  0.54885338  0.30271487  0.00471103    -0.81000
C923        C  0.56952526  0.26059179  0.45751419     1.00100
C924        C  0.51712097  0.28268255  0.00939134     1.06000
O925        O  0.53757230  0.24677798  0.45158899    -0.76600
C926        C  0.61376281  0.35540400  0.36864815     1.04300
Fe927      Fe  0.93699824  0.13767959  0.11925646     1.65800
Fe928      Fe  0.89892654  0.14316048  0.20463326     1.73200
Fe929      Fe  0.97274417  0.20937120  0.17519532     1.54400
O930        O  0.50945171  0.19861097  0.15310483    -0.80400
O931        O  0.88813742  0.18095705  0.19807237    -0.78700
O932        O  0.98291768  0.14364694  0.13631942    -0.82900
O933        O  0.96072663  0.18101487  0.08241335    -0.77700
O934        O  0.98166388  0.19665484  0.23102024    -0.79500
O935        O  0.86328466  0.11635157  0.15823326    -0.82200
C936        C  0.96807906  0.21186482  0.08561245     0.98500
C937        C  0.51005881  0.17175472  0.14390147     1.06000
O938        O  0.93588745  0.16369377  0.16584530    -1.11200
O939        O  0.90834016  0.10455836  0.21386216    -0.73700
O940        O  0.91156342  0.09095912  0.14979777    -0.77100
O941        O  0.96726059  0.22515080  0.11914047    -0.77800
C942        C  0.90226548  0.08267777  0.18663461     0.97400
O943        O  0.89119577  0.12936681  0.09893808    -0.75800
O944        O  0.92933572  0.16883194  0.25555581    -0.81000
C945        C  0.90854571  0.21160671  0.20662880     1.00100
C946        C  0.96113000  0.18841857  0.26031405     1.06000
O947        O  0.94050170  0.22548434  0.20073881    -0.76600
C948        C  0.86386352  0.11598190  0.11923138     1.04300
C949        C  0.99882101  0.23883365  0.29902404    -0.15100
C950        C  0.97465841  0.20574400  0.29948445    -0.30300
H951        H  0.00821845  0.25177855  0.27004470     0.13900
H952        H  0.96220425  0.19339659  0.32777043     0.14500
C953        C  0.00307625  0.26581125  0.04892274    -0.15100
C954        C  0.97862742  0.23287527  0.04878237    -0.30300
H955        H  0.51627979  0.27816215  0.07689314     0.13900
H956        H  0.96884847  0.21983668  0.01996851     0.14500
C957        C  0.65037668  0.38821857  0.31049647    -0.15100
C958        C  0.64600344  0.37139824  0.34592631    -0.30300
H959        H  0.63065335  0.39254970  0.29853395     0.13900
H960        H  0.66725923  0.37034545  0.35935645     0.14500
C961        C  0.85202733  0.03966553  0.22068742    -0.15100
C962        C  0.87884153  0.04691833  0.19668177    -0.30300
H963        H  0.85003791  0.06020392  0.23472469     0.13900
H964        H  0.87953311  0.02715266  0.17898761     0.14500
C965        C  0.72231138  0.49777355  0.13117801    -0.15100
C966        C  0.73151112  0.47381294  0.13067984    -0.30300
H967        H  0.72198899  0.50987868  0.15954381     0.13900
H968        H  0.73545067  0.46470934  0.10171974     0.14500
C969        C  0.75599347  0.47194508  0.38135145    -0.15100
C970        C  0.74793302  0.49672829  0.38080523    -0.30300
H971        H  0.75556543  0.45943365  0.40969473     0.13900
H972        H  0.74373730  0.00626117  0.35001054     0.14500
C973        C  0.82718222  0.08252835  0.06150018    -0.15100
C974        C  0.83152372  0.09956567  0.09675488    -0.30300
H975        H  0.84700742  0.07829893  0.04960375     0.13900
H976        H  0.81020791  0.10054749  0.11018435     0.14500
C977        C  0.62577834  0.43200353  0.47175749    -0.15100
C978        C  0.60002663  0.42519592  0.44607595    -0.30300
H979        H  0.62671839  0.41124543  0.48679718     0.13900
H980        H  0.60051741  0.44517196  0.42755618     0.14500
C981        C  0.54992477  0.15528738  0.11438140    -0.15100
C982        C  0.54337507  0.17428164  0.14028575    -0.30300
H983        H  0.52977834  0.13586791  0.09599009     0.13900
H984        H  0.56429767  0.19590586  0.15522057     0.14500
C985        C  0.60138111  0.25441342  0.01357387    -0.15100
C986        C  0.58358344  0.24185589  0.47866487    -0.30300
H987        H  0.60175913  0.27630805  0.02724910     0.13900
H988        H  0.57885914  0.21765755  0.46679486     0.14500
C989        C  0.73257964  0.32341799  0.14441949    -0.15100
C990        C  0.72078775  0.32765630  0.18047010    -0.30300
H991        H  0.75593014  0.34350152  0.13135277     0.13900
H992        H  0.69911057  0.30619093  0.19464501     0.14500
C993        C  0.67762500  0.11926653  0.05520479    -0.15100
C994        C  0.65798949  0.09342697  0.02997003    -0.30300
H995        H  0.69953362  0.12005297  0.06948268     0.13900
H996        H  0.63825860  0.09402227  0.01207589     0.14500
C997        C  0.87769593  0.21745349  0.26352855    -0.15100
C998        C  0.89442414  0.23008766  0.22807086    -0.30300
H999        H  0.87701676  0.19534944  0.27702109     0.13900
H1000       H  0.89818803  0.25384403  0.21581908     0.14500
C1001       C  0.92846674  0.31643499  0.36401504    -0.15100
C1002       C  0.93517647  0.29791313  0.39048225    -0.30300
H1003       H  0.94853702  0.33553814  0.34516037     0.13900
H1004       H  0.91434168  0.27654185  0.40596086     0.14500
C1005       C  0.73553374  0.24260078  0.46422829    -0.15100
C1006       C  0.76878697  0.25212346  0.46489230    -0.30300
H1007       H  0.72263145  0.23885381  0.43521444     0.13900
H1008       H  0.78110942  0.25223770  0.49325348     0.14500
C1009       C  0.74285351  0.22895966  0.21439867    -0.15100
C1010       C  0.70941749  0.21871204  0.21515116    -0.30300
H1011       H  0.75586027  0.23324421  0.18532527     0.13900
H1012       H  0.69686822  0.21801132  0.24359642     0.14500
C1013       C  0.74646215  0.14773072  0.39388024    -0.15100
C1014       C  0.75903256  0.14346084  0.42925867    -0.30300
H1015       H  0.72267859  0.12778533  0.38161317     0.13900
H1016       H  0.78111711  0.16483667  0.44285661     0.14500
C1017       C  0.82015128  0.37733835  0.28040384    -0.15100
C1018       C  0.80091482  0.35170619  0.30609118    -0.30300
H1019       H  0.83970776  0.37670055  0.26211169     0.13900
H1020       H  0.77913869  0.35087803  0.32087928     0.14500
Fe1021     Fe  0.83757366  0.28196343  0.78551940     1.65200
Fe1022     Fe  0.83203722  0.23863506  0.87108865     1.73200
Fe1023     Fe  0.76538981  0.24497046  0.84069483     1.54400
O1024       O  0.77600047  0.29217811  0.81819343    -0.80400
O1025       O  0.79473350  0.18966710  0.86514757    -0.78700
O1026       O  0.83107694  0.32148750  0.80274397    -0.82900
O1027       O  0.79430342  0.26224866  0.74830475    -0.77700
O1028       O  0.77739180  0.26662126  0.89651917    -0.79500
O1029       O  0.85937015  0.23024653  0.82480702    -0.82200
C1030       C  0.76350897  0.23837724  0.75119749     0.98500
C1031       C  0.80285142  0.31979182  0.80917663     1.06000
O1032       O  0.81132436  0.25442495  0.83186147    -1.11200
O1033       O  0.86987705  0.28700651  0.88019300    -0.73700
O1034       O  0.88431704  0.30348546  0.81627969    -0.77100
O1035       O  0.75029696  0.22369248  0.78452916    -0.77800
C1036       C  0.89218371  0.30257781  0.85330696     0.97400
O1037       O  0.84633394  0.24483524  0.76532969    -0.75800
O1038       O  0.80591819  0.24311922  0.92164346    -0.81000
C1039       C  0.76384713  0.17904385  0.87310430     1.00100
C1040       C  0.78595524  0.25489583  0.92604946     1.06000
O1041       O  0.74967237  0.19673444  0.86644507    -0.76600
C1042       C  0.85989089  0.23119007  0.78578526     1.04300
Fe1043     Fe  0.64020644  0.18789359  0.53503022     1.65800
Fe1044     Fe  0.64538982  0.23078115  0.62089501     1.73200
Fe1045     Fe  0.71226622  0.22490736  0.59042063     1.54400
O1046       O  0.70190393  0.17782772  0.56795506    -0.80400
O1047       O  0.68250335  0.27985359  0.61510897    -0.78700
O1048       O  0.64696030  0.14841082  0.55198426    -0.82900
O1049       O  0.68356748  0.20801465  0.49787226    -0.77700
O1050       O  0.70033146  0.20314157  0.64623897    -0.79500
O1051       O  0.61808940  0.23927326  0.57471755    -0.82200
C1052       C  0.71429407  0.23195631  0.50095085     0.98500
C1053       C  0.67517788  0.15019295  0.55880817     1.06000
O1054       O  0.66629547  0.21528826  0.58152481    -1.11200
O1055       O  0.60777334  0.18225039  0.62969303    -0.73700
O1056       O  0.59336943  0.16609782  0.56575069    -0.77100
O1057       O  0.72737882  0.24636651  0.53438152    -0.77800
C1058       C  0.58547361  0.16700853  0.60278774     0.97400
O1059       O  0.63116581  0.22495745  0.51503893    -0.75800
O1060       O  0.67154538  0.22634226  0.67143245    -0.81000
C1061       C  0.71348018  0.29069449  0.62266491     1.00100
C1062       C  0.69171310  0.21480444  0.67579176     1.06000
O1063       O  0.72775534  0.27309027  0.61603474    -0.76600
C1064       C  0.61763590  0.23856517  0.53568611     1.04300
Fe1065     Fe  0.69158742  0.03655586  0.95169673     1.65800
Fe1066     Fe  0.73608987  0.07530504  0.53638937     1.73200
Fe1067     Fe  0.73106160  0.50337585  0.50679556     1.54400
O1068       O  0.68328020  0.46543079  0.98375678    -0.80400
O1069       O  0.78531544  0.08784045  0.53045110    -0.78700
O1070       O  0.65322863  0.49047349  0.96869706    -0.82900
O1071       O  0.71219626  0.01377674  0.91448757    -0.77700
O1072       O  0.70893772  0.49355409  0.56236460    -0.79500
O1073       O  0.74139576  0.10992836  0.99205111    -0.82200
C1074       C  0.73664900  0.00770996  0.91724064     0.98500
C1075       C  0.65540945  0.46422675  0.97504605     1.06000
O1076       O  0.72108112  0.03920507  0.49682526    -1.11200
O1077       O  0.68741446  0.06409483  0.54537437    -0.73700
O1078       O  0.66906534  0.06103118  0.98211131    -0.77100
O1079       O  0.75176399  0.01000950  0.95043492    -0.77800
C1080       C  0.67187567  0.07080670  0.51848369     0.97400
O1081       O  0.72837910  0.08288378  0.93211415    -0.75800
O1082       O  0.73164415  0.04436882  0.58664623    -0.81000
C1083       C  0.79653494  0.06804668  0.53793546     1.00100
C1084       C  0.72047354  0.01269510  0.59069568     1.06000
O1085       O  0.77944276  0.03624744  0.53085555    -0.76600
C1086       C  0.74118699  0.10988946  0.95294813     1.04300
Fe1087     Fe  0.78680868  0.43383188  0.70100382     1.65800
Fe1088     Fe  0.74366126  0.39590056  0.78674297     1.73200
Fe1089     Fe  0.74938749  0.46853147  0.75629131     1.54400
O1090       O  0.79565797  0.00524999  0.73368964    -0.80400
O1091       O  0.69455642  0.38377532  0.78082059    -0.78700
O1092       O  0.82620511  0.48003696  0.71822249    -0.82900
O1093       O  0.76689806  0.45726619  0.66388146    -0.77700
O1094       O  0.77106203  0.47835535  0.81208923    -0.79500
O1095       O  0.73539630  0.36025775  0.74042040    -0.82200
C1096       C  0.74301509  0.46416610  0.66685413     0.98500
C1097       C  0.82345370  0.00627626  0.72500807     1.06000
O1098       O  0.75917879  0.43232425  0.74741241    -1.11200
O1099       O  0.79222096  0.40683997  0.79567290    -0.73700
O1100       O  0.80852992  0.40873214  0.73171955    -0.77100
O1101       O  0.72815058  0.46237114  0.70014595    -0.77800
C1102       C  0.80761560  0.39992228  0.76875885     0.97400
O1103       O  0.74977019  0.38777920  0.68081118    -0.75800
O1104       O  0.74785331  0.42643732  0.83738377    -0.81000
C1105       C  0.68364212  0.40377561  0.78869014     1.00100
C1106       C  0.75932280  0.45813647  0.84168779     1.06000
O1107       O  0.70112150  0.43565086  0.78196761    -0.76600
C1108       C  0.73612821  0.36059752  0.70137368     1.04300
Fe1109     Fe  0.54102682  0.33357653  0.86839816     1.65800
Fe1110     Fe  0.57926403  0.32858276  0.95379714     1.73200
Fe1111     Fe  0.50624317  0.26173233  0.92408341     1.54400
O1112       O  0.96860621  0.27159716  0.90223897    -0.80400
O1113       O  0.59111283  0.29142481  0.94805582    -0.78700
O1114       O  0.99434554  0.32656738  0.88671304    -0.82900
O1115       O  0.51726413  0.29018146  0.83157144    -0.77700
O1116       O  0.99618355  0.27419177  0.98027277    -0.79500
O1117       O  0.61478799  0.35563687  0.90708577    -0.82200
C1118       C  0.51042031  0.25946203  0.83461185     0.98500
C1119       C  0.96782769  0.29842457  0.89341967     1.06000
O1120       O  0.54261418  0.30760325  0.91483395    -1.11200
O1121       O  0.56854255  0.36629485  0.96268818    -0.73700
O1122       O  0.56641749  0.38043848  0.89871676    -0.77100
O1123       O  0.51221259  0.24645895  0.86792275    -0.77800
C1124       C  0.57531122  0.38845750  0.93566749     0.97400
O1125       O  0.58691422  0.34230631  0.84777322    -0.75800
O1126       O  0.54871414  0.30379180  0.50575142    -0.81000
C1127       C  0.57095699  0.26059462  0.95620659     1.00100
C1128       C  0.51690255  0.28432632  0.51055771     1.06000
O1129       O  0.53904713  0.24629349  0.94964774    -0.76600
C1130       C  0.61423153  0.35594362  0.86804020     1.04300
Fe1131     Fe  0.93795657  0.13746259  0.61859752     1.65800
Fe1132     Fe  0.89933059  0.14197869  0.70386706     1.73200
Fe1133     Fe  0.97249138  0.20889559  0.67465006     1.54400
O1134       O  0.50946344  0.19930741  0.65190893    -0.80400
O1135       O  0.88759132  0.17918912  0.69795673    -0.78700
O1136       O  0.98377624  0.14380000  0.63646498    -0.82900
O1137       O  0.96175785  0.18109143  0.58208214    -0.77700
O1138       O  0.98172829  0.19607056  0.73020570    -0.79500
O1139       O  0.86407365  0.11509627  0.65705302    -0.82200
C1140       C  0.96828826  0.21170186  0.58531408     0.98500
C1141       C  0.51033830  0.17262123  0.64246444     1.06000
O1142       O  0.93615388  0.16313460  0.66510568    -1.11200
O1143       O  0.91003397  0.10424909  0.71272158    -0.73700
O1144       O  0.91245244  0.09042167  0.64867429    -0.77100
O1145       O  0.96654506  0.22454757  0.61877277    -0.77800
C1146       C  0.90347707  0.08221888  0.68561117     0.97400
O1147       O  0.89231467  0.12900551  0.59791140    -0.75800
O1148       O  0.92948089  0.16765471  0.75487479    -0.81000
C1149       C  0.90771464  0.20992659  0.70649545     1.00100
C1150       C  0.96123591  0.18742615  0.75958589     1.06000
O1151       O  0.93969094  0.22418214  0.70049024    -0.76600
C1152       C  0.86489604  0.11514937  0.61802241     1.04300
C1153       C  0.99887847  0.23759792  0.79849174    -0.15100
C1154       C  0.97473233  0.20452747  0.79883109    -0.30300
H1155       H  0.00834147  0.25064384  0.76957914     0.13900
H1156       H  0.96221071  0.19209811  0.82705486     0.14500
C1157       C  0.00278920  0.26618873  0.54943354    -0.15100
C1158       C  0.97903037  0.23299919  0.54870834    -0.30300
H1159       H  0.51605905  0.27902026  0.57794886     0.13900
H1160       H  0.96997606  0.22012519  0.51966072     0.14500
C1161       C  0.65085620  0.38938060  0.81006886    -0.15100
C1162       C  0.64658761  0.37251408  0.84547128    -0.30300
H1163       H  0.63099551  0.39349086  0.79809347     0.13900
H1164       H  0.66793758  0.37159709  0.85883315     0.14500
C1165       C  0.85394605  0.03975779  0.72150750    -0.15100
C1166       C  0.87986145  0.04656888  0.69605361    -0.30300
H1167       H  0.85278179  0.06050819  0.73623813     0.13900
H1168       H  0.87960557  0.02658949  0.67778795     0.14500
C1169       C  0.72433451  0.49978676  0.63093899    -0.15100
C1170       C  0.73301233  0.47543897  0.63018986    -0.30300
H1171       H  0.72442438  0.51202768  0.65936430     0.13900
H1172       H  0.73659283  0.46619892  0.60113086     0.14500
C1173       C  0.75554303  0.47190363  0.88076363    -0.15100
C1174       C  0.74692551  0.49631310  0.88023720    -0.30300
H1175       H  0.75531841  0.45950506  0.90911630     0.13900
H1176       H  0.74333603  0.00610019  0.85149965     0.14500
C1177       C  0.82914019  0.08251867  0.55944851    -0.15100
C1178       C  0.83277592  0.09864145  0.59523661    -0.30300
H1179       H  0.84935098  0.07901397  0.54729028     0.13900
H1180       H  0.81111707  0.09895750  0.60868913     0.14500
C1181       C  0.62502056  0.43068160  0.97139271    -0.15100
C1182       C  0.59904035  0.42402282  0.94620483    -0.30300
H1183       H  0.62622962  0.40985153  0.98583378     0.13900
H1184       H  0.59925329  0.44411197  0.92820712     0.14500
C1185       C  0.54997897  0.15561329  0.61353864    -0.15100
C1186       C  0.54372922  0.17536528  0.63852340    -0.30300
H1187       H  0.52966758  0.13570206  0.59583428     0.13900
H1188       H  0.56481052  0.19737392  0.65267359     0.14500
C1189       C  0.60110348  0.25455054  0.51360753    -0.15100
C1190       C  0.58520805  0.24220412  0.97771815    -0.30300
H1191       H  0.60267844  0.27711504  0.52693375     0.13900
H1192       H  0.58174013  0.21862526  0.96526370     0.14500
C1193       C  0.73216143  0.32361656  0.64351134    -0.15100
C1194       C  0.72011969  0.32811369  0.67922059    -0.30300
H1195       H  0.75587868  0.34341655  0.63083965     0.13900
H1196       H  0.69809932  0.30684555  0.69315579     0.14500
C1197       C  0.67812512  0.11965156  0.55529334    -0.15100
C1198       C  0.65947176  0.09409027  0.52930003    -0.30300
H1199       H  0.69983262  0.12062161  0.57037252     0.13900
H1200       H  0.63998959  0.09458551  0.51077013     0.14500
C1201       C  0.87668136  0.21562167  0.76342671    -0.15100
C1202       C  0.89331518  0.22819133  0.72789338    -0.30300
H1203       H  0.87605857  0.19355260  0.77694156     0.13900
H1204       H  0.89705057  0.25194448  0.71566820     0.14500
C1205       C  0.92779972  0.31464487  0.86411546    -0.15100
C1206       C  0.93444180  0.29572306  0.89000003    -0.30300
H1207       H  0.94791869  0.33412919  0.84568073     0.13900
H1208       H  0.91357539  0.27402039  0.90497516     0.14500
C1209       C  0.73553114  0.24223106  0.96480333    -0.15100
C1210       C  0.76865848  0.25127625  0.96519802    -0.30300
H1211       H  0.72252722  0.23861788  0.93589010     0.13900
H1212       H  0.78101601  0.25121264  0.99345580     0.14500
C1213       C  0.74242188  0.22814526  0.71435419    -0.15100
C1214       C  0.70915105  0.21861996  0.71486947    -0.30300
H1215       H  0.75548336  0.23213277  0.68536911     0.13900
H1216       H  0.69664551  0.21825153  0.74322257     0.14500
C1217       C  0.74522312  0.14633573  0.89446644    -0.15100
C1218       C  0.75669554  0.14246705  0.93092199    -0.30300
H1219       H  0.72227224  0.12594171  0.88111662     0.13900
H1220       H  0.77797601  0.16415402  0.94526302     0.14500
C1221       C  0.81934550  0.37609483  0.77955177    -0.15100
C1222       C  0.80011479  0.35042775  0.80526415    -0.30300
H1223       H  0.83898282  0.37551072  0.76137510     0.13900
H1224       H  0.77829022  0.34958833  0.81992583     0.14500
Fe1225     Fe  0.83799104  0.78318496  0.28505306     1.65200
Fe1226     Fe  0.83306089  0.74073322  0.37101140     1.73200
Fe1227     Fe  0.76591776  0.74609319  0.34047412     1.54400
O1228       O  0.77617526  0.79311378  0.31772490    -0.80400
O1229       O  0.79619195  0.69165329  0.36513608    -0.78700
O1230       O  0.83123815  0.82254833  0.30210568    -0.82900
O1231       O  0.79459769  0.76309944  0.24796680    -0.77700
O1232       O  0.77774458  0.76794757  0.39619518    -0.79500
O1233       O  0.86067830  0.73254106  0.32490987    -0.82200
C1234       C  0.76387858  0.73910152  0.25108649     0.98500
C1235       C  0.80297841  0.82075309  0.30863509     1.06000
O1236       O  0.81196072  0.75589846  0.33161134    -1.11200
O1237       O  0.87046915  0.78935492  0.37975331    -0.73700
O1238       O  0.88488286  0.80507158  0.31566903    -0.77100
O1239       O  0.75087900  0.72452360  0.28451605    -0.77800
C1240       C  0.89280062  0.80454685  0.35278070     0.97400
O1241       O  0.84690885  0.74607199  0.26521847    -0.75800
O1242       O  0.80667453  0.74495659  0.42148192    -0.81000
C1243       C  0.76521899  0.68065399  0.37296961     1.00100
C1244       C  0.78641081  0.75638456  0.42578569     1.06000
O1245       O  0.75069118  0.69801937  0.36633069    -0.76600
C1246       C  0.86092405  0.73299352  0.28587616     1.04300
Fe1247     Fe  0.64011193  0.68777522  0.03602433     1.65800
Fe1248     Fe  0.64505953  0.73048193  0.12185173     1.73200
Fe1249     Fe  0.71195919  0.72445661  0.09149515     1.54400
O1250       O  0.70165179  0.67745167  0.06871422    -0.80400
O1251       O  0.68226428  0.77949270  0.11592296    -0.78700
O1252       O  0.64668594  0.64819292  0.05292855    -0.82900
O1253       O  0.68360236  0.70798057  0.99895763    -0.77700
O1254       O  0.69959841  0.70240759  0.14711648    -0.79500
O1255       O  0.61763710  0.73885731  0.07565825    -0.82200
C1256       C  0.71434173  0.73192331  0.00209388     0.98500
C1257       C  0.67487110  0.64986334  0.05955478     1.06000
O1258       O  0.66604874  0.71499427  0.08255259    -1.11200
O1259       O  0.60731643  0.68198973  0.13076034    -0.73700
O1260       O  0.59319212  0.66594964  0.06671030    -0.77100
O1261       O  0.72738055  0.74620597  0.03560009    -0.77800
C1262       C  0.58512369  0.66666866  0.10374209     0.97400
O1263       O  0.63132674  0.72497109  0.01612566    -0.75800
O1264       O  0.67128187  0.72609477  0.17235351    -0.81000
C1265       C  0.71316986  0.79018211  0.12376730     1.00100
C1266       C  0.69132665  0.71440118  0.17664227     1.06000
O1267       O  0.72738377  0.77249954  0.11736291    -0.76600
C1268       C  0.61738162  0.73822691  0.03661648     1.04300
Fe1269     Fe  0.69382339  0.53803496  0.45144960     1.65800
Fe1270     Fe  0.73418745  0.57422378  0.03799229     1.73200
Fe1271     Fe  0.72979994  0.00264991  0.00639993     1.54400
O1272       O  0.68455841  0.96633290  0.48236751    -0.80400
O1273       O  0.78355618  0.58715856  0.03270694    -0.78700
O1274       O  0.65443265  0.99140278  0.46796862    -0.82900
O1275       O  0.71394741  0.51473282  0.41448774    -0.77700
O1276       O  0.70734525  0.99156375  0.06175915    -0.79500
O1277       O  0.74487651  0.61162774  0.49076833    -0.82200
C1278       C  0.73786840  0.50790517  0.41748310     0.98500
C1279       C  0.65662103  0.96514078  0.47412691     1.06000
O1280       O  0.71971240  0.53832521  0.99812776    -1.11200
O1281       O  0.68531322  0.56249728  0.04644317    -0.73700
O1282       O  0.67189849  0.56293131  0.48208936    -0.77100
O1283       O  0.75264819  0.50965720  0.45078250    -0.77800
C1284       C  0.67025744  0.56970987  0.01945123     0.97400
O1285       O  0.73082906  0.58407414  0.43124539    -0.75800
O1286       O  0.72981151  0.54332810  0.08821530    -0.81000
C1287       C  0.79500565  0.56749455  0.03986881     1.00100
C1288       C  0.71893820  0.51171207  0.09208654     1.06000
O1289       O  0.77813036  0.53571587  0.03237335    -0.76600
C1290       C  0.74416669  0.61124905  0.45173599     1.04300
Fe1291     Fe  0.78559269  0.93319112  0.20073573     1.65800
Fe1292     Fe  0.74406382  0.89598462  0.28746462     1.73200
Fe1293     Fe  0.74740510  0.96715449  0.25536236     1.54400
O1294       O  0.79550506  0.50498399  0.23429957    -0.80400
O1295       O  0.69453897  0.88265971  0.28266915    -0.78700
O1296       O  0.82443782  0.97982636  0.21754547    -0.82900
O1297       O  0.76465571  0.95557741  0.16350209    -0.77700
O1298       O  0.77016410  0.97849886  0.31046595    -0.79500
O1299       O  0.73581153  0.85986070  0.24178157    -0.82200
C1300       C  0.74012963  0.96152582  0.16644423     0.98500
C1301       C  0.82336327  0.50628178  0.22525379     1.06000
O1302       O  0.75812425  0.93155995  0.24725305    -1.11200
O1303       O  0.79310885  0.90831117  0.29543173    -0.73700
O1304       O  0.80836178  0.90911667  0.23131062    -0.77100
O1305       O  0.72510931  0.95927504  0.19972911    -0.77800
C1306       C  0.80811101  0.90098538  0.26847175     0.97400
O1307       O  0.74889124  0.88665809  0.18163237    -0.75800
O1308       O  0.74863629  0.92721691  0.33732603    -0.81000
C1309       C  0.68304314  0.90231658  0.28965138     1.00100
C1310       C  0.75974639  0.95890537  0.34072646     1.06000
O1311       O  0.69989630  0.93406182  0.28214070    -0.76600
C1312       C  0.73601343  0.85974728  0.20271401     1.04300
Fe1313     Fe  0.54098528  0.83423261  0.36948877     1.65800
Fe1314     Fe  0.57903972  0.82908311  0.45503459     1.73200
Fe1315     Fe  0.50562337  0.76257991  0.42539761     1.54400
O1316       O  0.96867579  0.77316913  0.40321555    -0.80400
O1317       O  0.59033738  0.79152875  0.44936377    -0.78700
O1318       O  0.99484443  0.82797319  0.38673125    -0.82900
O1319       O  0.51714656  0.79080709  0.33270117    -0.77700
O1320       O  0.99648820  0.77611026  0.48127230    -0.79500
O1321       O  0.61463966  0.85577146  0.40845800    -0.82200
C1322       C  0.50998422  0.75999141  0.33582758     0.98500
C1323       C  0.96815864  0.80002304  0.39371673     1.06000
O1324       O  0.54230253  0.80828443  0.41605970    -1.11200
O1325       O  0.56899721  0.86729671  0.46379252    -0.73700
O1326       O  0.56656052  0.88111912  0.39970936    -0.77100
O1327       O  0.51123724  0.74685119  0.36929266    -0.77800
C1328       C  0.57567356  0.88931195  0.43657510     0.97400
O1329       O  0.58672366  0.84243770  0.34918684    -0.75800
O1330       O  0.54861702  0.80208054  0.00474796    -0.81000
C1331       C  0.56997764  0.76073024  0.45745859     1.00100
C1332       C  0.51681690  0.78242777  0.00936807     1.06000
O1333       O  0.53807321  0.74670874  0.45101068    -0.76600
C1334       C  0.61403348  0.85584973  0.36944540     1.04300
Fe1335     Fe  0.93766809  0.63802277  0.11863633     1.65800
Fe1336     Fe  0.89942194  0.64294530  0.20415801     1.73200
Fe1337     Fe  0.97290083  0.70960357  0.17476643     1.54400
O1338       O  0.50899676  0.69847302  0.15256485    -0.80400
O1339       O  0.88820265  0.68053554  0.19846717    -0.78700
O1340       O  0.98360915  0.64420758  0.13591391    -0.82900
O1341       O  0.96137749  0.68154874  0.08197612    -0.77700
O1342       O  0.98206285  0.69695220  0.23057786    -0.79500
O1343       O  0.86390195  0.61636446  0.15750325    -0.82200
C1344       C  0.96832850  0.71228608  0.08521918     0.98500
C1345       C  0.50957102  0.67159945  0.14333689     1.06000
O1346       O  0.93628055  0.66385329  0.16531630    -1.11200
O1347       O  0.90940278  0.60469987  0.21289915    -0.73700
O1348       O  0.91218642  0.59104019  0.14883620    -0.77100
O1349       O  0.96713123  0.72534575  0.11876754    -0.77800
C1350       C  0.90302819  0.58275360  0.18571699     0.97400
O1351       O  0.89189856  0.62959355  0.09822095    -0.75800
O1352       O  0.92975961  0.66831054  0.25513944    -0.81000
C1353       C  0.90851534  0.71127268  0.20678395     1.00100
C1354       C  0.96150071  0.68810069  0.25994637     1.06000
O1355       O  0.94044467  0.72533175  0.20055913    -0.76600
C1356       C  0.86455311  0.61613622  0.11848279     1.04300
C1357       C  0.99888787  0.73806270  0.29943517    -0.15100
C1358       C  0.97484041  0.70495590  0.29941401    -0.30300
H1359       H  0.00853646  0.75122457  0.27062459     0.13900
H1360       H  0.96213696  0.69236244  0.32748835     0.14500
C1361       C  0.00296557  0.76651728  0.04871988    -0.15100
C1362       C  0.97886407  0.73342731  0.04843699    -0.30300
H1363       H  0.51585565  0.77763043  0.07677798     0.13900
H1364       H  0.96942181  0.72039592  0.01955192     0.14500
C1365       C  0.65025326  0.88782984  0.31081673    -0.15100
C1366       C  0.64631727  0.87199987  0.34687987    -0.30300
H1367       H  0.63015549  0.89128468  0.29823129     0.13900
H1368       H  0.66785290  0.87176640  0.36076874     0.14500
C1369       C  0.85369613  0.53991684  0.22170791    -0.15100
C1370       C  0.87958555  0.54701243  0.19606305    -0.30300
H1371       H  0.85240587  0.56052787  0.23663399     0.13900
H1372       H  0.87944473  0.52716026  0.17764825     0.14500
C1373       C  0.72116483  0.99693691  0.13076244    -0.15100
C1374       C  0.72978024  0.97253596  0.12988797    -0.30300
H1375       H  0.72120264  0.00905057  0.15927243     0.13900
H1376       H  0.73343194  0.96337541  0.10081385     0.14500
C1377       C  0.75695757  0.97333045  0.37966850    -0.15100
C1378       C  0.74794030  0.99741099  0.37899793    -0.30300
H1379       H  0.75748683  0.96147196  0.40815272     0.13900
H1380       H  0.74467315  0.50631119  0.35183718     0.14500
C1381       C  0.82780936  0.58213951  0.06113199    -0.15100
C1382       C  0.83229200  0.59980270  0.09589937    -0.30300
H1383       H  0.84739674  0.57728318  0.04986892     0.13900
H1384       H  0.81115607  0.60138889  0.10884826     0.14500
C1385       C  0.62616806  0.93159017  0.47089446    -0.15100
C1386       C  0.59962682  0.92491249  0.44670823    -0.30300
H1387       H  0.62765079  0.91075102  0.48487610     0.13900
H1388       H  0.59944642  0.94496645  0.42906357     0.14500
C1389       C  0.54947408  0.65488258  0.11434580    -0.15100
C1390       C  0.54288824  0.67405029  0.13993002    -0.30300
H1391       H  0.52936261  0.63539882  0.09598179     0.13900
H1392       H  0.56380397  0.69571286  0.15481885     0.14500
C1393       C  0.60044511  0.75367175  0.01424991    -0.15100
C1394       C  0.58404354  0.74203296  0.47868620    -0.30300
H1395       H  0.60030386  0.77524127  0.02813336     0.13900
H1396       H  0.57974080  0.71805566  0.46655086     0.14500
C1397       C  0.73181507  0.82299639  0.14469632    -0.15100
C1398       C  0.72038332  0.82707769  0.18105916    -0.30300
H1399       H  0.75479501  0.84327079  0.13116330     0.13900
H1400       H  0.69909050  0.80549994  0.19562742     0.14500
C1401       C  0.67764458  0.61922191  0.05578173    -0.15100
C1402       C  0.65846107  0.59350268  0.03019213    -0.30300
H1403       H  0.69944103  0.62007458  0.07046670     0.13900
H1404       H  0.63887273  0.59407377  0.01196659     0.14500
C1405       C  0.87789094  0.71747909  0.26379093    -0.15100
C1406       C  0.89434604  0.72978639  0.22810205    -0.30300
H1407       H  0.87743332  0.69557735  0.27757681     0.13900
H1408       H  0.89788399  0.75336514  0.21553505     0.14500
C1409       C  0.92839901  0.81638656  0.36361535    -0.15100
C1410       C  0.93486672  0.79756142  0.38989822    -0.30300
H1411       H  0.94859862  0.83561334  0.34502046     0.13900
H1412       H  0.91388475  0.77608192  0.40504106     0.14500
C1413       C  0.73557166  0.74267675  0.46434727    -0.15100
C1414       C  0.76890511  0.75250356  0.46485174    -0.30300
H1415       H  0.72251931  0.73855438  0.43537959     0.13900
H1416       H  0.78142986  0.75300914  0.49320015     0.14500
C1417       C  0.74254390  0.72858993  0.21446808    -0.15100
C1418       C  0.70916286  0.71858107  0.21545407    -0.30300
H1419       H  0.75539711  0.73268966  0.18531332     0.13900
H1420       H  0.69680456  0.71809240  0.24397594     0.14500
C1421       C  0.74693255  0.64789396  0.39422679    -0.15100
C1422       C  0.75970736  0.64363666  0.42944628    -0.30300
H1423       H  0.72297196  0.62801322  0.38226612     0.13900
H1424       H  0.78195441  0.66498407  0.44282049     0.14500
C1425       C  0.81974531  0.87715103  0.27935605    -0.15100
C1426       C  0.80020077  0.85133764  0.30470909    -0.30300
H1427       H  0.83953128  0.87664719  0.26140815     0.13900
H1428       H  0.77823235  0.85042730  0.31906209     0.14500
Fe1429     Fe  0.83769195  0.78246163  0.78590159     1.65200
Fe1430     Fe  0.83283460  0.74011389  0.87205158     1.73200
Fe1431     Fe  0.76569648  0.74567069  0.84153449     1.54400
O1432       O  0.77604984  0.79267170  0.81874071    -0.80400
O1433       O  0.79569000  0.69102994  0.86688210    -0.78700
O1434       O  0.83105160  0.82196115  0.80282237    -0.82900
O1435       O  0.79427704  0.76231323  0.74897021    -0.77700
O1436       O  0.77772613  0.76766831  0.89718191    -0.79500
O1437       O  0.86001124  0.73137991  0.82577912    -0.82200
C1438       C  0.76352041  0.73842679  0.75207391     0.98500
C1439       C  0.80285188  0.82025658  0.80953738     1.06000
O1440       O  0.81171190  0.75528790  0.83260078    -1.11200
O1441       O  0.87065066  0.78865670  0.88038717    -0.73700
O1442       O  0.88465210  0.80437760  0.81621209    -0.77100
O1443       O  0.75038526  0.72402833  0.78555731    -0.77800
C1444       C  0.89279287  0.80382106  0.85320035     0.97400
O1445       O  0.84655271  0.74528191  0.76610783    -0.75800
O1446       O  0.80679612  0.74486480  0.92259310    -0.81000
C1447       C  0.76467571  0.68013391  0.87436934     1.00100
C1448       C  0.78647119  0.75623676  0.92683172     1.06000
O1449       O  0.75030118  0.69760597  0.86749267    -0.76600
C1450       C  0.86032075  0.73192843  0.78672893     1.04300
Fe1451     Fe  0.64049143  0.68815130  0.53571911     1.65800
Fe1452     Fe  0.64568607  0.73118726  0.62138393     1.73200
Fe1453     Fe  0.71271981  0.72559170  0.59073098     1.54400
O1454       O  0.70251535  0.67856893  0.56837076    -0.80400
O1455       O  0.68269042  0.78024613  0.61539148    -0.78700
O1456       O  0.64747629  0.64891252  0.55293508    -0.82900
O1457       O  0.68375492  0.70822341  0.49837515    -0.77700
O1458       O  0.70101794  0.70395746  0.64665462    -0.79500
O1459       O  0.61825332  0.73950147  0.57518667    -0.82200
C1460       C  0.71446691  0.73224367  0.50121802     0.98500
C1461       C  0.67579091  0.65085485  0.55950263     1.06000
O1462       O  0.66663895  0.71574354  0.58203069    -1.11200
O1463       O  0.60813896  0.68266752  0.63045412    -0.73700
O1464       O  0.59373016  0.66628213  0.56658397    -0.77100
O1465       O  0.72761542  0.74689900  0.53452805    -0.77800
C1466       C  0.58584415  0.66715913  0.60362668     0.97400
O1467       O  0.63122696  0.72500869  0.51555866    -0.75800
O1468       O  0.67191820  0.72682904  0.67189352    -0.81000
C1469       C  0.71366018  0.79116273  0.62303153     1.00100
C1470       C  0.69214353  0.71535611  0.67625754     1.06000
O1471       O  0.72807922  0.77371858  0.61629989    -0.76600
C1472       C  0.61770088  0.73864596  0.53615181     1.04300
Fe1473     Fe  0.69228538  0.53686865  0.95166047     1.65800
Fe1474     Fe  0.73669161  0.57599279  0.53705072     1.73200
Fe1475     Fe  0.73148192  0.00333190  0.50500912     1.54400
O1476       O  0.68316132  0.96543096  0.98327525    -0.80400
O1477       O  0.78576495  0.58814326  0.53084974    -0.78700
O1478       O  0.65267883  0.99013103  0.96890146    -0.82900
O1479       O  0.71267166  0.51397571  0.91426557    -0.77700
O1480       O  0.70971565  0.99268100  0.56084068    -0.79500
O1481       O  0.74244341  0.61017878  0.99204411    -0.82200
C1482       C  0.73678619  0.50740884  0.91703725     0.98500
C1483       C  0.65512300  0.96399465  0.97491943     1.06000
O1484       O  0.72132304  0.53958707  0.49781211    -1.11200
O1485       O  0.68810912  0.56496356  0.54608603    -0.73700
O1486       O  0.66991940  0.56137304  0.98234400    -0.77100
O1487       O  0.75174754  0.50938629  0.95025976    -0.77800
C1488       C  0.67255256  0.57159176  0.51912747     0.97400
O1489       O  0.72917212  0.58322598  0.93207977    -0.75800
O1490       O  0.73245672  0.54544566  0.58768492    -0.81000
C1491       C  0.79661833  0.56816224  0.53905919     1.00100
C1492       C  0.72071517  0.51370337  0.59196709     1.06000
O1493       O  0.77914395  0.53625636  0.53267139    -0.76600
C1494       C  0.74214698  0.61020162  0.95298388     1.04300
Fe1495     Fe  0.78618743  0.93374008  0.70141993     1.65800
Fe1496     Fe  0.74328233  0.89604192  0.78724519     1.73200
Fe1497     Fe  0.74863147  0.96843994  0.75633220     1.54400
O1498       O  0.79654395  0.50537025  0.73389687    -0.80400
O1499       O  0.69418258  0.88385120  0.78133836    -0.78700
O1500       O  0.82544809  0.97993431  0.71861821    -0.82900
O1501       O  0.76614436  0.95690140  0.66417515    -0.77700
O1502       O  0.77044618  0.97859762  0.81207854    -0.79500
O1503       O  0.73493818  0.86025926  0.74108195    -0.82200
C1504       C  0.74206536  0.96351469  0.66692034     0.98500
C1505       C  0.82429146  0.50639798  0.72489693     1.06000
O1506       O  0.75860410  0.93231144  0.74777464    -1.11200
O1507       O  0.79186553  0.90703252  0.79610255    -0.73700
O1508       O  0.80805581  0.90883223  0.73212584    -0.77100
O1509       O  0.72721492  0.96188292  0.70017797    -0.77800
C1510       C  0.80727462  0.90014867  0.76917536     0.97400
O1511       O  0.74919713  0.88770154  0.68142211    -0.75800
O1512       O  0.74766531  0.92679204  0.83771115    -0.81000
C1513       C  0.68317014  0.90378114  0.78909600     1.00100
C1514       C  0.75907440  0.95849771  0.84183725     1.06000
O1515       O  0.70051103  0.93562999  0.78223861    -0.76600
C1516       C  0.73564918  0.86056438  0.70203588     1.04300
Fe1517     Fe  0.54078528  0.83306819  0.86870342     1.65800
Fe1518     Fe  0.57907005  0.82797006  0.95392276     1.73200
Fe1519     Fe  0.50592970  0.76128352  0.92437027     1.54400
O1520       O  0.96959889  0.77267246  0.90156175    -0.80400
O1521       O  0.59072653  0.79069429  0.94783382    -0.78700
O1522       O  0.99509880  0.82761429  0.88573373    -0.82900
O1523       O  0.51722760  0.78963505  0.83194570    -0.77700
O1524       O  0.99653462  0.77468464  0.97982261    -0.79500
O1525       O  0.61456994  0.85509418  0.90731574    -0.82200
C1526       C  0.51044555  0.75893098  0.83501573     0.98500
C1527       C  0.96865833  0.79940452  0.89252085     1.06000
O1528       O  0.54238558  0.80709593  0.91503200    -1.11200
O1529       O  0.56854312  0.86578871  0.96305430    -0.73700
O1530       O  0.56601765  0.87988275  0.89913580    -0.77100
O1531       O  0.51201838  0.74584869  0.86838305    -0.77800
C1532       C  0.57502966  0.88791340  0.93606063     0.97400
O1533       O  0.58666225  0.84192972  0.84804671    -0.75800
O1534       O  0.54860390  0.80348582  0.50590971    -0.81000
C1535       C  0.57050811  0.75998914  0.95648607     1.00100
C1536       C  0.51684225  0.78367716  0.51045796     1.06000
O1537       O  0.53856102  0.74582362  0.95035461    -0.76600
C1538       C  0.61397360  0.85553612  0.86829600     1.04300
Fe1539     Fe  0.93827712  0.63845665  0.61853529     1.65800
Fe1540     Fe  0.90002730  0.64255551  0.70443157     1.73200
Fe1541     Fe  0.97313302  0.70962453  0.67515276     1.54400
O1542       O  0.50959752  0.69870878  0.65214077    -0.80400
O1543       O  0.88823553  0.67979185  0.69915487    -0.78700
O1544       O  0.98421434  0.64473223  0.63572123    -0.82900
O1545       O  0.96182305  0.68224810  0.58228318    -0.77700
O1546       O  0.98248480  0.69646244  0.73043626    -0.79500
O1547       O  0.86457375  0.61575521  0.65776284    -0.82200
C1548       C  0.96851564  0.71288750  0.58584411     0.98500
C1549       C  0.51037231  0.67185125  0.64347454     1.06000
O1550       O  0.93670882  0.66390601  0.66543906    -1.11200
O1551       O  0.91067669  0.60468489  0.71263154    -0.73700
O1552       O  0.91295494  0.59126178  0.64834008    -0.77100
O1553       O  0.96714636  0.72567079  0.61952470    -0.77800
C1554       C  0.90403575  0.58281094  0.68525392     0.97400
O1555       O  0.89250060  0.63001267  0.59841399    -0.75800
O1556       O  0.93036452  0.66818349  0.75541174    -0.81000
C1557       C  0.90838952  0.71052853  0.70771317     1.00100
C1558       C  0.96213138  0.68805478  0.75992215     1.06000
O1559       O  0.94035467  0.72479828  0.70148805    -0.76600
C1560       C  0.86519166  0.61587378  0.61872780     1.04300
C1561       C  0.99985601  0.73868537  0.79822360    -0.15100
C1562       C  0.97579463  0.70555772  0.79895376    -0.30300
H1563       H  0.00903799  0.75153508  0.76915186     0.13900
H1564       H  0.96352758  0.69329713  0.82735530     0.14500
C1565       C  0.00342863  0.76718950  0.54973995    -0.15100
C1566       C  0.97895055  0.73425374  0.54929911    -0.30300
H1567       H  0.51528060  0.77850239  0.57785188     0.13900
H1568       H  0.96912745  0.72146151  0.52036446     0.14500
C1569       C  0.65044727  0.88932281  0.81053361    -0.15100
C1570       C  0.64626879  0.87224509  0.84572081    -0.30300
H1571       H  0.63057714  0.89352549  0.79880028     0.13900
H1572       H  0.66763690  0.87124230  0.85888255     0.14500
C1573       C  0.85481794  0.53992815  0.72146501    -0.15100
C1574       C  0.88046208  0.54703103  0.69540492    -0.30300
H1575       H  0.85382268  0.56053855  0.73682036     0.13900
H1576       H  0.87998770  0.52722124  0.67657079     0.14500
C1577       C  0.72343615  0.99875764  0.63001600    -0.15100
C1578       C  0.73190438  0.97426492  0.62995445    -0.30300
H1579       H  0.72346045  0.01124844  0.65820469     0.13900
H1580       H  0.73553870  0.96471158  0.60116126     0.14500
C1581       C  0.75559926  0.97240020  0.88095521    -0.15100
C1582       C  0.74693160  0.99676467  0.88046826    -0.30300
H1583       H  0.75548434  0.96005061  0.90930498     0.13900
H1584       H  0.74345684  0.50571543  0.85124852     0.14500
C1585       C  0.82920799  0.58261703  0.56062279    -0.15100
C1586       C  0.83296452  0.59908660  0.59617236    -0.30300
H1587       H  0.84939662  0.57904159  0.54854160     0.13900
H1588       H  0.81135089  0.59952209  0.60957103     0.14500
C1589       C  0.62489346  0.93032902  0.97129347    -0.15100
C1590       C  0.59859975  0.92351980  0.94658409    -0.30300
H1591       H  0.62645323  0.90956317  0.98536473     0.13900
H1592       H  0.59841921  0.94355490  0.92889816     0.14500
C1593       C  0.55026291  0.65528246  0.61447157    -0.15100
C1594       C  0.54373209  0.67450048  0.64000883    -0.30300
H1595       H  0.53010155  0.63566732  0.59629012     0.13900
H1596       H  0.56465288  0.69631372  0.65467128     0.14500
C1597       C  0.60107057  0.75450038  0.51398680    -0.15100
C1598       C  0.58474290  0.74166184  0.97811600    -0.30300
H1599       H  0.60222419  0.77681935  0.52748505     0.13900
H1600       H  0.58187942  0.71842123  0.96532053     0.14500
C1601       C  0.73212647  0.82392952  0.64415801    -0.15100
C1602       C  0.71985631  0.82814118  0.67984595    -0.30300
H1603       H  0.75585784  0.84386958  0.63168473     0.13900
H1604       H  0.69783917  0.80676058  0.69362460     0.14500
C1605       C  0.67882217  0.62040049  0.55594398    -0.15100
C1606       C  0.66020075  0.59490512  0.52987104    -0.30300
H1607       H  0.70052877  0.62138221  0.57104129     0.13900
H1608       H  0.64074497  0.59543103  0.51131795     0.14500
C1609       C  0.87709203  0.71622923  0.76451709    -0.15100
C1610       C  0.89402672  0.72885658  0.72914562    -0.30300
H1611       H  0.87617821  0.69401209  0.77799346     0.13900
H1612       H  0.89804879  0.75275410  0.71705638     0.14500
C1613       C  0.92846296  0.81568229  0.86359908    -0.15100
C1614       C  0.93517241  0.79654676  0.88906579    -0.30300
H1615       H  0.94852859  0.83529736  0.84523943     0.13900
H1616       H  0.91431838  0.77474132  0.90390451     0.14500
C1617       C  0.73561637  0.74269132  0.96534052    -0.15100
C1618       C  0.76893132  0.75238601  0.96589661    -0.30300
H1619       H  0.72266104  0.73883445  0.93634738     0.13900
H1620       H  0.78134163  0.75264923  0.99424395     0.14500
C1621       C  0.74243327  0.72787523  0.71524041    -0.15100
C1622       C  0.70930519  0.71889199  0.71549751    -0.30300
H1623       H  0.75552318  0.73145546  0.68635347     0.13900
H1624       H  0.69684772  0.71894846  0.74371539     0.14500
C1625       C  0.74603116  0.64722084  0.89526638    -0.15100
C1626       C  0.75782552  0.64285999  0.93119568    -0.30300
H1627       H  0.72270355  0.62717156  0.88219390     0.13900
H1628       H  0.77944417  0.66428243  0.94544217     0.14500
C1629       C  0.81917054  0.87647213  0.77995487    -0.15100
C1630       C  0.80008806  0.85086491  0.80577767    -0.30300
H1631       H  0.83872410  0.87586583  0.76162458     0.13900
H1632       H  0.77832616  0.85002420  0.82061801     0.14500
loop_ 
_geom_bond_atom_site_label_1 
_geom_bond_atom_site_label_2 
_geom_bond_distance 
_geom_bond_site_symmetry_2 
_ccdc_geom_bond_type 
Fe1          O17   2.036       .  S
Fe1           O7   2.103       .  S
Fe1          O14   2.108       .  S
Fe1           O6   2.045       .  S
Fe1          O12   1.952       .  S
Fe2           O5   2.028       .  S
Fe2           O9   2.116       .  S
Fe2          O13   2.032       .  S
Fe2          O18   2.110       .  S
Fe2          O12   1.935       .  S
Fe3          O21   2.119       .  S
Fe3           O8   2.023       .  S
Fe3          O15   2.035       .  S
Fe3           O4   2.090       .  S
Fe3          O12   1.936       .  S
O4           C11   1.276       .  A
O5           C19   1.265       .  A
O6           C11   1.267       .  A
O7           C10   1.279       .  A
O8           C20   1.259       .  A
O9           C22   1.281       .  A
C10          O15   1.265       .  A
C10         C193   1.468       .  S
C11         C202   1.467       .  S
O13          C16   1.262       .  A
O14          C16   1.274       .  A
C16         C185   1.475       .  S
O17          C22   1.267       .  A
O18          C20   1.275       .  A
C19          O21   1.280       .  A
C19         C197   1.473       .  S
C20         C190   1.472       .  S
C22         C181   1.473       .  S
Fe23         O39   2.037       .  S
Fe23         O29   2.103   1_554  S
Fe23         O36   2.107       .  S
Fe23         O28   2.049       .  S
Fe23         O34   1.952       .  S
Fe24         O27   2.030       .  S
Fe24         O31   2.120       .  S
Fe24         O35   2.032       .  S
Fe24         O40   2.112       .  S
Fe24         O34   1.937       .  S
Fe25         O43   2.117       .  S
Fe25         O30   2.023       .  S
Fe25         O37   2.035       .  S
Fe25         O26   2.091       .  S
Fe25         O34   1.936       .  S
O26          C33   1.276       .  A
O27          C41   1.266       .  A
O28          C33   1.267       .  A
O29          C32   1.279   1_556  A
O30          C42   1.259       .  A
O31          C44   1.282       .  A
C32          O37   1.266       .  A
C32         C393   1.468   1_554  S
C33         C177   1.470       .  S
O35          C38   1.262       .  A
O36          C38   1.274       .  A
C38         C165   1.474       .  S
O39          C44   1.267       .  A
O40          C42   1.275       .  A
C41          O43   1.280       .  A
C41         C173   1.472       .  S
C42         C194   1.473       .  S
C44         C169   1.476       .  S
Fe45         O61   2.038       .  S
Fe45         O51   2.101       .  S
Fe45         O58   2.106       .  S
Fe45        O458   2.049   1_545  S
Fe45        O260   1.952       .  S
Fe46         O49   2.028       .  S
Fe46         O57   2.032       .  S
Fe46         O62   2.112       .  S
Fe46        O257   2.120   1_554  S
Fe46         O56   1.937   1_554  S
Fe47         O52   2.021       .  S
Fe47        O473   2.120       .  S
Fe47        O671   2.038   1_554  S
Fe47        O252   2.089   1_554  S
Fe47        O464   1.935   1_554  S
O48        Fe251   2.090       .  S
O48          C55   1.276       .  A
O49          C63   1.266       .  A
O50        Fe453   2.047       .  S
O50          C55   1.267       .  A
O51          C54   1.279       .  A
O52         C472   1.259       .  A
O53        Fe250   2.116       .  S
O53          C66   1.281       .  A
C54          O59   1.266       .  A
C54         C562   1.467   1_545  S
C55         C161   1.468       .  S
O56        Fe249   1.952       .  S
O56        Fe455   1.937   1_556  S
O57          C60   1.262       .  A
O58         C264   1.275       .  A
O59        Fe659   2.035       .  S
C60         O262   1.274   1_554  A
C60         C178   1.474       .  S
O61          C66   1.267       .  A
O62          C64   1.275       .  A
C63          O65   1.280       .  A
C63         C157   1.473       .  S
C64         O460   1.259   1_545  A
C64         C557   1.473   1_545  S
O65        Fe455   2.119       .  S
C66         C198   1.474       .  S
Fe67         O83   2.037       .  S
Fe67         O73   2.103       .  S
Fe67         O80   2.104       .  S
Fe67         O72   2.049       .  S
Fe67         O78   1.952       .  S
Fe68         O71   2.028       .  S
Fe68         O75   2.119       .  S
Fe68         O79   2.031       .  S
Fe68         O84   2.112       .  S
Fe68         O78   1.934       .  S
Fe69         O87   2.113       .  S
Fe69         O74   2.021       .  S
Fe69         O81   2.033       .  S
Fe69        O478   2.087       .  S
Fe69         O78   1.933       .  S
O70        Fe477   2.087   1_545  S
O70          C77   1.275       .  A
O71          C85   1.265       .  A
O72         C485   1.267       .  A
O73          C76   1.279       .  A
O74          C86   1.259       .  A
O75          C88   1.282       .  A
C76          O81   1.265       .  A
C76         C150   1.467       .  S
C77         O480   1.267   1_545  A
C77         C145   1.469       .  S
O79          C82   1.261       .  A
O80          C82   1.273       .  A
C82         C201   1.472       .  S
O83          C88   1.268       .  A
O84          C86   1.276       .  A
C85          O87   1.279       .  A
C85         C141   1.470       .  S
C86         C153   1.472       .  S
C88         C174   1.475       .  S
Fe89        O105   2.036       .  S
Fe89         O95   2.102       .  S
Fe89        O102   2.106       .  S
Fe89        O910   2.049   1_455  S
Fe89        O100   1.952       .  S
Fe90         O93   2.028       .  S
Fe90         O97   2.114       .  S
Fe90        O101   2.031       .  S
Fe90        O310   2.109       .  S
Fe90        O100   1.937       .  S
Fe91        O109   2.120       .  S
Fe91        O103   2.038       .  S
Fe91        O912   2.023   1_455  S
Fe91        O908   2.090   1_455  S
Fe91        O100   1.935       .  S
O92        Fe907   2.089       .  S
O92          C99   1.276       .  A
O93         C107   1.265       .  A
O94        Fe905   2.051       .  S
O94          C99   1.267       .  A
O95          C98   1.279       .  A
O96        Fe907   2.024       .  S
O96        C1128   1.260       .  A
O97         C110   1.281       .  A
C98         O103   1.266       .  A
C98         C949   1.469   1_455  S
C99         C186   1.470       .  S
O101        C104   1.262       .  A
O102        C104   1.274       .  A
C104        C162   1.473       .  S
O105        C110   1.267       .  A
O106       Fe294   2.109   1_554  S
O106        C108   1.275       .  A
C107        O109   1.280       .  A
C107        C170   1.474       .  S
C108       O1116   1.260   1_454  A
C108        C953   1.471       .  S
C110        C142   1.472       .  S
Fe111       O127   2.037       .  S
Fe111       O117   2.101       .  S
Fe111       O124   2.105       .  S
Fe111       O116   2.048       .  S
Fe111       O122   1.952       .  S
Fe112       O115   2.028       .  S
Fe112       O119   2.115       .  S
Fe112       O123   2.032       .  S
Fe112       O128   2.110       .  S
Fe112       O122   1.937       .  S
Fe113       O131   2.117       .  S
Fe113       O118   2.025       .  S
Fe113       O125   2.039       .  S
Fe113       O930   2.088       .  S
Fe113       O122   1.938       .  S
O114       Fe929   2.088   1_455  S
O114        C121   1.276       .  A
O115        C129   1.265       .  A
O116        C937   1.267       .  A
O117        C120   1.279       .  A
O118        C130   1.260       .  A
O119        C132   1.281       .  A
C120        O125   1.266       .  A
C120        C138   1.469       .  S
C121        O932   1.267   1_455  A
C121        C166   1.469       .  S
O123        C126   1.262       .  A
O124        C126   1.274       .  A
C126        C146   1.473       .  S
O127        C132   1.267       .  A
O128        C130   1.275       .  A
C129        O131   1.279       .  A
C129        C182   1.471       .  S
C130        C134   1.472       .  S
C132        C158   1.474       .  S
C133        C914   1.467       .  S
C133        C134   1.351       .  D
C133        H135   1.088       .  S
C134        H136   1.086       .  S
C137        C924   1.475       .  S
C137        C138   1.352       .  D
C137        H955   1.086       .  S
C138        H140   1.087       .  S
H139        C953   1.086       .  S
C141        C142   1.351       .  D
C141        H143   1.086       .  S
C142        H144   1.088       .  S
C145        C146   1.349       .  D
C145        H147   1.088       .  S
C146        H148   1.086       .  S
C149        C472   1.473       .  S
C149        C150   1.353       .  D
C149        H151   1.086       .  S
C150        H152   1.087       .  S
C153        C154   1.352       .  D
C153        H155   1.086       .  S
C154        C462   1.467       .  S
C154        H564   1.087       .  S
H156        C562   1.087   1_545  S
C157        C158   1.352       .  D
C157        H159   1.086       .  S
C158        H160   1.087       .  S
C161        C162   1.349       .  D
C161        H163   1.088       .  S
C162        H164   1.086       .  S
C165        C166   1.350       .  D
C165        H167   1.086       .  S
C166        H168   1.088       .  S
C169        C374   1.353   1_554  D
C169        H171   1.087       .  S
C170        C373   1.352       .  D
C170        H172   1.086       .  S
C173        C174   1.352       .  D
C173        H175   1.086       .  S
C174        H176   1.087       .  S
C177        C178   1.350       .  D
C177        H179   1.088       .  S
C178        H180   1.086       .  S
C181        C182   1.351       .  D
C181        H183   1.087       .  S
C182        H184   1.086       .  S
C185        C186   1.350       .  D
C185        H187   1.086       .  S
C186        H188   1.088       .  S
C189        C236   1.467       .  S
C189        C190   1.352       .  D
C189        H191   1.088       .  S
C190        H192   1.086       .  S
C193        C194   1.352       .  D
C193        H195   1.088       .  S
C194        H196   1.086       .  S
C197        C198   1.352       .  D
C197        H199   1.086       .  S
C198        H200   1.087       .  S
C201        C202   1.349       .  D
C201        H203   1.086       .  S
C202        H204   1.088       .  S
Fe205       O221   2.036       .  S
Fe205       O211   2.102       .  S
Fe205       O218   2.106       .  S
Fe205       O210   2.048       .  S
Fe205       O216   1.952       .  S
Fe206       O209   2.029       .  S
Fe206       O213   2.118       .  S
Fe206       O217   2.033       .  S
Fe206       O222   2.112       .  S
Fe206       O216   1.937       .  S
Fe207       O225   2.119       .  S
Fe207       O212   2.023       .  S
Fe207       O219   2.039       .  S
Fe207       O208   2.089       .  S
Fe207       O216   1.937       .  S
O208        C215   1.276       .  A
O209        C223   1.265       .  A
O210        C215   1.267       .  A
O211        C214   1.279       .  A
O212        C224   1.259       .  A
O213        C226   1.282       .  A
C214        O219   1.266       .  A
C214        C397   1.469       .  S
C215        C406   1.468       .  S
O217        C220   1.262       .  A
O218        C220   1.274       .  A
C220        C389   1.475       .  S
O221        C226   1.267       .  A
O222        C224   1.276       .  A
C223        O225   1.280       .  A
C223        C401   1.473       .  S
C224        C394   1.473       .  S
C226        C385   1.475       .  S
Fe227       O243   2.038       .  S
Fe227       O233   2.101       .  S
Fe227       O240   2.104       .  S
Fe227       O232   2.049       .  S
Fe227       O238   1.954       .  S
Fe228       O231   2.029       .  S
Fe228       O235   2.117       .  S
Fe228       O239   2.032       .  S
Fe228       O244   2.112       .  S
Fe228       O238   1.936       .  S
Fe229       O247   2.115       .  S
Fe229       O234   2.025       .  S
Fe229       O241   2.036       .  S
Fe229       O230   2.088       .  S
Fe229       O238   1.937       .  S
O230        C237   1.276       .  A
O231        C245   1.265       .  A
O232        C237   1.267       .  A
O233        C236   1.278       .  A
O234        C246   1.260       .  A
O235        C248   1.282       .  A
C236        O241   1.266       .  A
C237        C381   1.468       .  S
O239        C242   1.262       .  A
O240        C242   1.274       .  A
C242        C369   1.473       .  S
O243        C248   1.268       .  A
O244        C246   1.276       .  A
C245        O247   1.279       .  A
C245        C377   1.472       .  S
C246        C398   1.475       .  S
C248        C373   1.475       .  S
Fe249       O265   2.036       .  S
Fe249       O255   2.103       .  S
Fe249       O262   2.107       .  S
Fe249       O662   2.046   1_545  S
Fe250       O253   2.027       .  S
Fe250       O261   2.032       .  S
Fe250       O266   2.115       .  S
Fe250       O260   1.936       .  S
Fe251       O677   2.116       .  S
Fe251       O256   2.023       .  S
Fe251       O467   2.035       .  S
Fe251       O668   1.937       .  S
O252        C259   1.276       .  A
O253        C267   1.265       .  A
O254       Fe657   2.048       .  S
O254        C259   1.267       .  A
O255        C258   1.279       .  A
O256        C676   1.260       .  A
O257        C270   1.282       .  A
C258        O263   1.266       .  A
C258        C766   1.469   1_545  S
C259        C365   1.468       .  S
O260       Fe659   1.937       .  S
O261        C264   1.263       .  A
O263       Fe455   2.037   1_556  S
C264        C382   1.474       .  S
O265        C270   1.268       .  A
O266        C268   1.276       .  A
C267        O269   1.279       .  A
C267        C361   1.470       .  S
C268        O664   1.260   1_545  A
C268        C761   1.475       .  S
O269       Fe659   2.117       .  S
C270        C402   1.475       .  S
Fe271       O287   2.036       .  S
Fe271       O277   2.101       .  S
Fe271       O284   2.106       .  S
Fe271       O276   2.048       .  S
Fe271       O282   1.953       .  S
Fe272       O275   2.028       .  S
Fe272       O279   2.117       .  S
Fe272       O283   2.032       .  S
Fe272       O288   2.114       .  S
Fe272       O282   1.936       .  S
Fe273       O291   2.118       .  S
Fe273       O278   2.024       .  S
Fe273       O285   2.037       .  S
Fe273       O682   2.089       .  S
Fe273       O282   1.936       .  S
O274       Fe681   2.088   1_545  S
O274        C281   1.276       .  A
O275        C289   1.265       .  A
O276        C689   1.267       .  A
O277        C280   1.278       .  A
O278        C290   1.260       .  A
O279        C292   1.282       .  A
C280        O285   1.266       .  A
C280        C354   1.468       .  S
C281        O684   1.267   1_545  A
C281        C349   1.468       .  S
O283        C286   1.262       .  A
O284        C286   1.274       .  A
C286        C405   1.474       .  S
O287        C292   1.267       .  A
O288        C290   1.276       .  A
C289        O291   1.280       .  A
C289        C345   1.473       .  S
C290        C357   1.475       .  S
C292        C378   1.474       .  S
Fe293       O309   2.038       .  S
Fe293       O299   2.101       .  S
Fe293       O306   2.106       .  S
Fe293      O1114   2.048   1_455  S
Fe293       O304   1.952       .  S
Fe294       O297   2.030       .  S
Fe294       O301   2.115       .  S
Fe294       O305   2.030       .  S
Fe294       O304   1.935       .  S
Fe295       O313   2.120       .  S
Fe295      O1116   2.023   1_455  S
Fe295       O307   2.037       .  S
Fe295      O1112   2.088   1_455  S
Fe295       O304   1.936       .  S
O296      Fe1111   2.091       .  S
O296        C303   1.276       .  A
O297        C311   1.265       .  A
O298      Fe1109   2.049       .  S
O298        C303   1.267       .  A
O299        C302   1.279       .  A
O300      Fe1111   2.024       .  S
O300        C924   1.260   1_556  A
O301        C314   1.281       .  A
C302        O307   1.267       .  A
C302       C1153   1.467   1_455  S
C303        C390   1.470       .  S
O305        C308   1.261       .  A
O306        C308   1.274       .  A
C308        C366   1.473       .  S
O309        C314   1.267       .  A
O310        C312   1.275       .  A
C311        O313   1.280       .  A
C311        C374   1.473       .  S
C312        O912   1.259   1_455  A
C312       C1157   1.471       .  S
C314        C346   1.474       .  S
Fe315       O331   2.033       .  S
Fe315       O321   2.102       .  S
Fe315       O328   2.107       .  S
Fe315       O320   2.045       .  S
Fe315       O326   1.950       .  S
Fe316       O319   2.029       .  S
Fe316       O323   2.116       .  S
Fe316       O327   2.032       .  S
Fe316       O332   2.111       .  S
Fe316       O326   1.935       .  S
Fe317       O335   2.120       .  S
Fe317       O322   2.023       .  S
Fe317       O329   2.036       .  S
Fe317      O1134   2.091       .  S
Fe317       O326   1.934       .  S
O318      Fe1133   2.088   1_455  S
O318        C325   1.276       .  A
O319        C333   1.266       .  A
O320       C1141   1.266       .  A
O321        C324   1.279       .  A
O322        C334   1.259       .  A
O323        C336   1.281       .  A
C324        O329   1.266       .  A
C324        C342   1.467       .  S
C325       O1136   1.267   1_455  A
C325        C370   1.468       .  S
O327        C330   1.262       .  A
O328        C330   1.274       .  A
C330        C350   1.474       .  S
O331        C336   1.267       .  A
O332        C334   1.275       .  A
C333        O335   1.280       .  A
C333        C386   1.473       .  S
C334        C338   1.472       .  S
C336        C362   1.472       .  S
C337       C1118   1.467       .  S
C337        C338   1.352       .  D
C337        H339   1.088       .  S
C338        H340   1.086       .  S
C341       C1128   1.473       .  S
C341        C342   1.352       .  D
C341       H1159   1.086       .  S
C342        H344   1.087       .  S
H343       C1157   1.086       .  S
C345        C346   1.352       .  D
C345        H347   1.086       .  S
C346        H348   1.087       .  S
C349        C350   1.349       .  D
C349        H351   1.088       .  S
C350        H352   1.086       .  S
C353        C676   1.475       .  S
C353        C354   1.353       .  D
C353        H355   1.086       .  S
C354        H356   1.087       .  S
C357        C358   1.353       .  D
C357        H359   1.086       .  S
C358        C666   1.469       .  S
C358        H768   1.087       .  S
H360        C766   1.087   1_545  S
C361        C362   1.351       .  D
C361        H363   1.086       .  S
C362        H364   1.087       .  S
C365        C366   1.349       .  D
C365        H367   1.088       .  S
C366        H368   1.086       .  S
C369        C370   1.349       .  D
C369        H371   1.086       .  S
C370        H372   1.088       .  S
C373        H375   1.087       .  S
C374        H376   1.086       .  S
C377        C378   1.351       .  D
C377        H379   1.086       .  S
C378        H380   1.087       .  S
C381        C382   1.349       .  D
C381        H383   1.088       .  S
C382        H384   1.086       .  S
C385        C386   1.352       .  D
C385        H387   1.087       .  S
C386        H388   1.086       .  S
C389        C390   1.350       .  D
C389        H391   1.086       .  S
C390        H392   1.088       .  S
C393        C394   1.352       .  D
C393        H395   1.087       .  S
C394        H396   1.086       .  S
C397        C398   1.352       .  D
C397        H399   1.087       .  S
C398        H400   1.086       .  S
C401        C402   1.353       .  D
C401        H403   1.086       .  S
C402        H404   1.087       .  S
C405        C406   1.349       .  D
C405        H407   1.086       .  S
C406        H408   1.088       .  S
Fe409       O425   2.034       .  S
Fe409       O415   2.104       .  S
Fe409       O422   2.107       .  S
Fe409       O414   2.045       .  S
Fe409       O420   1.951       .  S
Fe410       O413   2.028       .  S
Fe410       O417   2.115       .  S
Fe410       O421   2.032       .  S
Fe410       O426   2.110       .  S
Fe410       O420   1.935       .  S
Fe411       O429   2.117       .  S
Fe411       O416   2.023       .  S
Fe411       O423   2.036       .  S
Fe411       O412   2.088       .  S
Fe411       O420   1.936       .  S
O412        C419   1.276       .  A
O413        C427   1.265       .  A
O414        C419   1.266       .  A
O415        C418   1.279       .  A
O416        C428   1.260       .  A
O417        C430   1.281       .  A
C418        O423   1.266       .  A
C418        C601   1.469       .  S
C419        C610   1.467       .  S
O421        C424   1.262       .  A
O422        C424   1.274       .  A
C424        C593   1.475       .  S
O425        C430   1.267       .  A
O426        C428   1.275       .  A
C427        O429   1.280       .  A
C427        C605   1.472       .  S
C428        C598   1.472       .  S
C430        C589   1.472       .  S
Fe431       O447   2.039       .  S
Fe431       O437   2.101   1_554  S
Fe431       O444   2.107       .  S
Fe431       O436   2.049       .  S
Fe431       O442   1.952       .  S
Fe432       O435   2.029       .  S
Fe432       O439   2.118       .  S
Fe432       O443   2.032       .  S
Fe432       O448   2.111       .  S
Fe432       O442   1.936       .  S
Fe433       O451   2.118       .  S
Fe433       O438   2.024       .  S
Fe433       O445   2.035       .  S
Fe433       O434   2.091       .  S
Fe433       O442   1.937       .  S
O434        C441   1.276       .  A
O435        C449   1.265       .  A
O436        C441   1.267       .  A
O437        C440   1.279   1_556  A
O438        C450   1.260       .  A
O439        C452   1.282       .  A
C440        O445   1.266       .  A
C440        C801   1.467   1_554  S
C441        C585   1.470       .  S
O443        C446   1.262       .  A
O444        C446   1.274       .  A
C446        C573   1.474       .  S
O447        C452   1.268       .  A
O448        C450   1.275       .  A
C449        O451   1.280       .  A
C449        C581   1.473       .  S
C450        C602   1.472       .  S
C452        C577   1.476       .  S
Fe453       O469   2.036       .  S
Fe453       O459   2.101       .  S
Fe453       O466   2.105       .  S
Fe453       O668   1.953       .  S
Fe454       O457   2.027       .  S
Fe454       O665   2.121   1_554  S
Fe454       O465   2.032       .  S
Fe454       O470   2.114       .  S
Fe454       O464   1.937   1_554  S
Fe455       O460   2.023   1_545  S
Fe455       O660   2.091   1_544  S
O456       Fe659   2.089   1_565  S
O456        C463   1.276       .  A
O457        C471   1.265       .  A
O458        C463   1.267       .  A
O459        C462   1.278       .  A
O461       Fe658   2.117       .  S
O461        C474   1.282       .  A
C462        O467   1.265       .  A
C463        C569   1.469       .  S
O464       Fe657   1.952       .  S
O465        C468   1.261       .  A
O466        C672   1.274       .  A
C468        O670   1.274   1_554  A
C468        C586   1.474       .  S
O469        C474   1.267       .  A
O470        C472   1.276       .  A
C471        O473   1.281       .  A
C471        C565   1.473       .  S
C474        C606   1.473       .  S
Fe475       O491   2.039       .  S
Fe475       O481   2.102       .  S
Fe475       O488   2.105       .  S
Fe475       O480   2.049       .  S
Fe475       O486   1.952       .  S
Fe476       O479   2.028       .  S
Fe476       O483   2.117       .  S
Fe476       O487   2.031       .  S
Fe476       O492   2.113       .  S
Fe476       O486   1.936       .  S
Fe477       O495   2.117       .  S
Fe477       O482   2.022       .  S
Fe477       O489   2.035       .  S
Fe477       O486   1.935       .  S
O478        C485   1.275       .  A
O479        C493   1.265       .  A
O481        C484   1.279       .  A
O482        C494   1.259       .  A
O483        C496   1.282       .  A
C484        O489   1.266       .  A
C484        C558   1.468       .  S
C485        C553   1.468       .  S
O487        C490   1.262       .  A
O488        C490   1.274       .  A
C490        C609   1.472       .  S
O491        C496   1.268       .  A
O492        C494   1.275       .  A
C493        O495   1.280       .  A
C493        C549   1.471       .  S
C494        C561   1.473       .  S
C496        C582   1.475       .  S
Fe497       O513   2.036       .  S
Fe497       O503   2.101       .  S
Fe497       O510   2.109       .  S
Fe497      O1318   2.050   1_455  S
Fe497       O508   1.952       .  S
Fe498       O501   2.029       .  S
Fe498       O505   2.113       .  S
Fe498       O509   2.031       .  S
Fe498       O718   2.110       .  S
Fe498       O508   1.937       .  S
Fe499       O517   2.122       .  S
Fe499      O1320   2.024   1_455  S
Fe499       O511   2.040       .  S
Fe499      O1316   2.090   1_455  S
Fe499       O508   1.936       .  S
O500      Fe1315   2.089       .  S
O500        C507   1.276       .  A
O501        C515   1.265       .  A
O502      Fe1313   2.049       .  S
O502        C507   1.267       .  A
O503        C506   1.279       .  A
O504      Fe1315   2.022       .  S
O504       C1536   1.259       .  A
O505        C518   1.281       .  A
C506        O511   1.267       .  A
C506       C1357   1.469   1_455  S
C507        C594   1.469       .  S
O509        C512   1.262       .  A
O510        C512   1.275       .  A
C512        C570   1.476       .  S
O513        C518   1.267       .  A
O514       Fe702   2.110   1_554  S
O514        C516   1.275       .  A
C515        O517   1.280       .  A
C515        C578   1.475       .  S
C516       O1524   1.259   1_454  A
C516       C1361   1.473       .  S
C518        C550   1.472       .  S
Fe519       O535   2.038       .  S
Fe519       O525   2.099       .  S
Fe519       O532   2.103       .  S
Fe519       O524   2.049       .  S
Fe519       O530   1.952       .  S
Fe520       O523   2.027       .  S
Fe520       O527   2.115       .  S
Fe520       O531   2.033       .  S
Fe520       O536   2.113       .  S
Fe520       O530   1.937       .  S
Fe521       O539   2.117       .  S
Fe521       O526   2.024       .  S
Fe521       O533   2.037       .  S
Fe521      O1338   2.089       .  S
Fe521       O530   1.939       .  S
O522      Fe1337   2.090   1_455  S
O522        C529   1.276       .  A
O523        C537   1.265       .  A
O524       C1345   1.267       .  A
O525        C528   1.278       .  A
O526        C538   1.260       .  A
O527        C540   1.281       .  A
C528        O533   1.266       .  A
C528        C546   1.467       .  S
C529       O1340   1.267   1_455  A
C529        C574   1.469       .  S
O531        C534   1.263       .  A
O532        C534   1.274       .  A
C534        C554   1.473       .  S
O535        C540   1.267       .  A
O536        C538   1.276       .  A
C537        O539   1.279       .  A
C537        C590   1.471       .  S
C538        C542   1.474       .  S
C540        C566   1.474       .  S
C541       C1322   1.469       .  S
C541        C542   1.352       .  D
C541        H543   1.088       .  S
C542        H544   1.086       .  S
C545       C1332   1.472       .  S
C545        C546   1.352       .  D
C545       H1363   1.086       .  S
C546        H548   1.087       .  S
H547       C1361   1.086       .  S
C549        C550   1.351       .  D
C549        H551   1.086       .  S
C550        H552   1.087       .  S
C553        C554   1.348       .  D
C553        H555   1.088       .  S
C554        H556   1.086       .  S
C557        C558   1.353       .  D
C557        H559   1.086   1_565  S
C558        H560   1.087       .  S
C561        C562   1.352       .  D
C561        H563   1.086       .  S
C565        C566   1.352       .  D
C565        H567   1.086       .  S
C566        H568   1.087       .  S
C569        C570   1.350       .  D
C569        H571   1.088       .  S
C570        H572   1.086       .  S
C573        C574   1.350       .  D
C573        H575   1.086       .  S
C574        H576   1.088       .  S
C577        C782   1.353   1_554  D
C577        H579   1.087       .  S
C578        C781   1.353       .  D
C578        H580   1.086       .  S
C581        C582   1.352       .  D
C581        H583   1.086       .  S
C582        H584   1.087       .  S
C585        C586   1.350       .  D
C585        H587   1.088       .  S
C586        H588   1.086       .  S
C589        C590   1.351       .  D
C589        H591   1.088       .  S
C590        H592   1.086       .  S
C593        C594   1.349       .  D
C593        H595   1.086       .  S
C594        H596   1.088       .  S
C597        C644   1.467       .  S
C597        C598   1.351       .  D
C597        H599   1.087       .  S
C598        H600   1.086       .  S
C601        C602   1.352       .  D
C601        H603   1.088       .  S
C602        H604   1.086       .  S
C605        C606   1.352       .  D
C605        H607   1.086       .  S
C606        H608   1.087       .  S
C609        C610   1.349       .  D
C609        H611   1.086       .  S
C610        H612   1.088       .  S
Fe613       O629   2.035       .  S
Fe613       O619   2.102       .  S
Fe613       O626   2.106       .  S
Fe613       O618   2.048       .  S
Fe613       O624   1.953       .  S
Fe614       O617   2.031       .  S
Fe614       O621   2.117       .  S
Fe614       O625   2.031       .  S
Fe614       O630   2.111       .  S
Fe614       O624   1.937       .  S
Fe615       O633   2.121       .  S
Fe615       O620   2.023       .  S
Fe615       O627   2.038       .  S
Fe615       O616   2.091       .  S
Fe615       O624   1.935       .  S
O616        C623   1.276       .  A
O617        C631   1.266       .  A
O618        C623   1.267       .  A
O619        C622   1.279       .  A
O620        C632   1.259       .  A
O621        C634   1.282       .  A
C622        O627   1.266       .  A
C622        C805   1.469       .  S
C623        C814   1.470       .  S
O625        C628   1.262       .  A
O626        C628   1.274       .  A
C628        C797   1.473       .  S
O629        C634   1.267       .  A
O630        C632   1.275       .  A
C631        O633   1.280       .  A
C631        C809   1.474       .  S
C632        C802   1.473       .  S
C634        C793   1.473       .  S
Fe635       O651   2.039       .  S
Fe635       O641   2.099       .  S
Fe635       O648   2.105       .  S
Fe635       O640   2.050       .  S
Fe635       O646   1.955       .  S
Fe636       O639   2.029       .  S
Fe636       O643   2.120       .  S
Fe636       O647   2.031       .  S
Fe636       O652   2.113       .  S
Fe636       O646   1.937       .  S
Fe637       O655   2.119       .  S
Fe637       O642   2.024       .  S
Fe637       O649   2.036       .  S
Fe637       O638   2.090       .  S
Fe637       O646   1.937       .  S
O638        C645   1.276       .  A
O639        C653   1.266       .  A
O640        C645   1.267       .  A
O641        C644   1.278       .  A
O642        C654   1.260       .  A
O643        C656   1.282       .  A
C644        O649   1.266       .  A
C645        C789   1.470       .  S
O647        C650   1.261       .  A
O648        C650   1.274       .  A
C650        C777   1.472       .  S
O651        C656   1.268       .  A
O652        C654   1.275       .  A
C653        O655   1.280       .  A
C653        C785   1.473       .  S
C654        C806   1.474       .  S
C656        C781   1.476       .  S
Fe657       O673   2.038       .  S
Fe657       O663   2.103       .  S
Fe657       O670   2.107       .  S
Fe658       O661   2.028       .  S
Fe658       O669   2.033       .  S
Fe658       O674   2.114       .  S
Fe658       O668   1.936       .  S
Fe659       O664   2.024   1_545  S
O660        C667   1.276       .  A
O661        C675   1.265       .  A
O662        C667   1.267       .  A
O663        C666   1.279       .  A
O665        C678   1.283       .  A
C666        O671   1.266       .  A
C667        C773   1.468       .  S
O669        C672   1.262       .  A
C672        C790   1.474       .  S
O673        C678   1.268       .  A
O674        C676   1.276       .  A
C675        O677   1.279       .  A
C675        C769   1.471       .  S
C678        C810   1.477       .  S
Fe679       O695   2.038       .  S
Fe679       O685   2.104       .  S
Fe679       O692   2.108       .  S
Fe679       O684   2.049       .  S
Fe679       O690   1.954       .  S
Fe680       O683   2.028       .  S
Fe680       O687   2.117       .  S
Fe680       O691   2.032       .  S
Fe680       O696   2.114       .  S
Fe680       O690   1.938       .  S
Fe681       O699   2.119       .  S
Fe681       O686   2.024       .  S
Fe681       O693   2.038       .  S
Fe681       O690   1.938       .  S
O682        C689   1.276       .  A
O683        C697   1.265       .  A
O685        C688   1.279       .  A
O686        C698   1.259       .  A
O687        C700   1.281       .  A
C688        O693   1.266       .  A
C688        C762   1.470       .  S
C689        C757   1.468       .  S
O691        C694   1.262       .  A
O692        C694   1.275       .  A
C694        C813   1.475       .  S
O695        C700   1.267       .  A
O696        C698   1.276       .  A
C697        O699   1.280       .  A
C697        C753   1.473       .  S
C698        C765   1.475       .  S
C700        C786   1.475       .  S
Fe701       O717   2.037       .  S
Fe701       O707   2.102       .  S
Fe701       O714   2.106       .  S
Fe701      O1522   2.048   1_455  S
Fe701       O712   1.954       .  S
Fe702       O705   2.030       .  S
Fe702       O709   2.118       .  S
Fe702       O713   2.031       .  S
Fe702       O712   1.937       .  S
Fe703       O721   2.121       .  S
Fe703      O1524   2.023   1_455  S
Fe703       O715   2.037       .  S
Fe703      O1520   2.092   1_455  S
Fe703       O712   1.935       .  S
O704      Fe1519   2.088       .  S
O704        C711   1.275       .  A
O705        C719   1.266       .  A
O706      Fe1517   2.047       .  S
O706        C711   1.267       .  A
O707        C710   1.279       .  A
O708      Fe1519   2.023       .  S
O708       C1332   1.260   1_556  A
O709        C722   1.282       .  A
C710        O715   1.266       .  A
C710       C1561   1.468   1_455  S
C711        C798   1.468       .  S
O713        C716   1.261       .  A
O714        C716   1.274       .  A
C716        C774   1.472       .  S
O717        C722   1.268       .  A
O718        C720   1.275       .  A
C719        O721   1.281       .  A
C719        C782   1.475       .  S
C720       O1320   1.260   1_455  A
C720       C1565   1.472       .  S
C722        C754   1.474       .  S
Fe723       O739   2.035       .  S
Fe723       O729   2.102       .  S
Fe723       O736   2.107       .  S
Fe723       O728   2.047       .  S
Fe723       O734   1.950       .  S
Fe724       O727   2.028       .  S
Fe724       O731   2.115       .  S
Fe724       O735   2.031       .  S
Fe724       O740   2.112       .  S
Fe724       O734   1.934       .  S
Fe725       O743   2.117       .  S
Fe725       O730   2.022       .  S
Fe725       O737   2.034       .  S
Fe725      O1542   2.089       .  S
Fe725       O734   1.935       .  S
O726      Fe1541   2.090   1_455  S
O726        C733   1.276       .  A
O727        C741   1.265       .  A
O728       C1549   1.266       .  A
O729        C732   1.279       .  A
O730        C742   1.260       .  A
O731        C744   1.281       .  A
C732        O737   1.266       .  A
C732        C750   1.466       .  S
C733       O1544   1.266   1_455  A
C733        C778   1.468       .  S
O735        C738   1.262       .  A
O736        C738   1.275       .  A
C738        C758   1.474       .  S
O739        C744   1.267       .  A
O740        C742   1.275       .  A
C741        O743   1.279       .  A
C741        C794   1.471       .  S
C742        C746   1.472       .  S
C744        C770   1.473       .  S
C745       C1526   1.466       .  S
C745        C746   1.351       .  D
C745        H747   1.088       .  S
C746        H748   1.086       .  S
C749       C1536   1.471       .  S
C749        C750   1.352       .  D
C749       H1567   1.086       .  S
C750        H752   1.088       .  S
H751       C1565   1.086       .  S
C753        C754   1.352       .  D
C753        H755   1.086       .  S
C754        H756   1.087       .  S
C757        C758   1.349       .  D
C757        H759   1.088       .  S
C758        H760   1.086       .  S
C761        C762   1.353   1_545  D
C761        H763   1.086       .  S
C762        H764   1.087       .  S
C765        C766   1.353       .  D
C765        H767   1.086       .  S
C769        C770   1.352       .  D
C769        H771   1.086       .  S
C770        H772   1.087       .  S
C773        C774   1.350       .  D
C773        H775   1.088       .  S
C774        H776   1.086       .  S
C777        C778   1.349       .  D
C777        H779   1.086       .  S
C778        H780   1.088       .  S
C781        H783   1.087       .  S
C782        H784   1.086       .  S
C785        C786   1.352       .  D
C785        H787   1.086       .  S
C786        H788   1.087       .  S
C789        C790   1.350       .  D
C789        H791   1.088       .  S
C790        H792   1.086       .  S
C793        C794   1.352       .  D
C793        H795   1.087       .  S
C794        H796   1.086       .  S
C797        C798   1.349       .  D
C797        H799   1.086       .  S
C798        H800   1.088       .  S
C801        C802   1.352       .  D
C801        H803   1.087       .  S
C802        H804   1.086       .  S
C805        C806   1.352       .  D
C805        H807   1.088       .  S
C806        H808   1.086       .  S
C809        C810   1.353       .  D
C809        H811   1.086       .  S
C810        H812   1.087       .  S
C813        C814   1.350       .  D
C813        H815   1.086       .  S
C814        H816   1.088       .  S
Fe817       O833   2.034       .  S
Fe817       O823   2.104       .  S
Fe817       O830   2.107       .  S
Fe817       O822   2.044       .  S
Fe817       O828   1.951       .  S
Fe818       O821   2.028       .  S
Fe818       O825   2.116       .  S
Fe818       O829   2.032       .  S
Fe818       O834   2.110       .  S
Fe818       O828   1.935       .  S
Fe819       O837   2.118       .  S
Fe819       O824   2.023       .  S
Fe819       O831   2.035       .  S
Fe819       O820   2.089       .  S
Fe819       O828   1.935       .  S
O820        C827   1.276       .  A
O821        C835   1.265       .  A
O822        C827   1.266       .  A
O823        C826   1.279       .  A
O824        C836   1.259       .  A
O825        C838   1.281       .  A
C826        O831   1.266       .  A
C826       C1009   1.469       .  S
C827       C1018   1.466       .  S
O829        C832   1.262       .  A
O830        C832   1.274       .  A
C832       C1001   1.475       .  S
O833        C838   1.267       .  A
O834        C836   1.275       .  A
C835        O837   1.280       .  A
C835       C1013   1.472       .  S
C836       C1006   1.472       .  S
C838        C997   1.472       .  S
Fe839       O855   2.036       .  S
Fe839       O845   2.101   1_554  S
Fe839       O852   2.106       .  S
Fe839       O844   2.048       .  S
Fe839       O850   1.952       .  S
Fe840       O843   2.030       .  S
Fe840       O847   2.119       .  S
Fe840       O851   2.032       .  S
Fe840       O856   2.112       .  S
Fe840       O850   1.935       .  S
Fe841       O859   2.120       .  S
Fe841       O846   2.024       .  S
Fe841       O853   2.035       .  S
Fe841       O842   2.093       .  S
Fe841       O850   1.936       .  S
O842        C849   1.277       .  A
O843        C857   1.265       .  A
O844        C849   1.267       .  A
O845        C848   1.278   1_556  A
O846        C858   1.260       .  A
O847        C860   1.282       .  A
C848        O853   1.266       .  A
C848       C1209   1.467   1_554  S
C849        C993   1.471       .  S
O851        C854   1.262       .  A
O852        C854   1.274       .  A
C854        C981   1.474       .  S
O855        C860   1.267       .  A
O856        C858   1.276       .  A
C857        O859   1.280       .  A
C857        C989   1.474       .  S
C858       C1010   1.472       .  S
C860        C985   1.476       .  S
Fe861       O877   2.036       .  S
Fe861       O867   2.100       .  S
Fe861       O874   2.105       .  S
Fe861      O1274   2.047   1_545  S
Fe861      O1076   1.952       .  S
Fe862       O865   2.028       .  S
Fe862      O1073   2.123   1_554  S
Fe862       O873   2.032       .  S
Fe862       O878   2.115       .  S
Fe862       O872   1.936   1_554  S
Fe863      O1289   2.119       .  S
Fe863       O868   2.023       .  S
Fe863      O1487   2.038   1_554  S
Fe863      O1068   2.090   1_554  S
Fe863      O1280   1.937   1_554  S
O864      Fe1067   2.090       .  S
O864        C871   1.276       .  A
O865        C879   1.265       .  A
O866      Fe1269   2.048       .  S
O866        C871   1.267       .  A
O867        C870   1.278       .  A
O868       C1288   1.259       .  A
O869      Fe1066   2.117       .  S
O869        C882   1.282       .  A
C870        O875   1.265       .  A
C870       C1378   1.466   1_545  S
C871        C977   1.469       .  S
O872      Fe1065   1.952       .  S
O872      Fe1271   1.935   1_556  S
O873        C876   1.261       .  A
O874       C1080   1.274       .  A
O875      Fe1475   2.035       .  S
C876       O1078   1.273   1_554  A
C876        C994   1.474       .  S
O877        C882   1.268       .  A
O878        C880   1.276       .  A
C879        O881   1.280       .  A
C879        C973   1.474       .  S
C880       O1276   1.259   1_545  A
C880       C1373   1.474   1_545  S
O881      Fe1271   2.120       .  S
C882       C1014   1.474       .  S
Fe883       O899   2.039       .  S
Fe883       O889   2.101       .  S
Fe883       O896   2.104       .  S
Fe883       O888   2.049       .  S
Fe883       O894   1.954       .  S
Fe884       O887   2.029       .  S
Fe884       O891   2.119       .  S
Fe884       O895   2.031       .  S
Fe884       O900   2.113       .  S
Fe884       O894   1.936       .  S
Fe885       O903   2.118       .  S
Fe885       O890   2.022       .  S
Fe885       O897   2.036       .  S
Fe885      O1294   2.088       .  S
Fe885       O894   1.935       .  S
O886      Fe1293   2.086   1_545  S
O886        C893   1.275       .  A
O887        C901   1.266       .  A
O888       C1301   1.267       .  A
O889        C892   1.279       .  A
O890        C902   1.259       .  A
O891        C904   1.282       .  A
C892        O897   1.266       .  A
C892        C966   1.468       .  S
C893       O1296   1.268   1_545  A
C893        C961   1.468       .  S
O895        C898   1.261       .  A
O896        C898   1.273       .  A
C898       C1017   1.471       .  S
O899        C904   1.268       .  A
O900        C902   1.275       .  A
C901        O903   1.280       .  A
C901        C957   1.473       .  S
C902        C969   1.474       .  S
C904        C990   1.476       .  S
Fe905       O921   2.037       .  S
Fe905       O911   2.100       .  S
Fe905       O918   2.107       .  S
Fe905       O916   1.952       .  S
Fe906       O909   2.029       .  S
Fe906       O913   2.115       .  S
Fe906       O917   2.032       .  S
Fe906      O1126   2.112       .  S
Fe906       O916   1.937       .  S
Fe907       O925   2.120       .  S
Fe907       O919   2.037       .  S
Fe907       O916   1.936       .  S
O908        C915   1.276       .  A
O909        C923   1.265       .  A
O910        C915   1.267       .  A
O911        C914   1.278       .  A
O913        C926   1.281       .  A
C914        O919   1.266       .  A
C915       C1002   1.469       .  S
O917        C920   1.262       .  A
O918        C920   1.275       .  A
C920        C978   1.475       .  S
O921        C926   1.267       .  A
O922      Fe1110   2.113   1_554  S
O922        C924   1.276       .  A
C923        O925   1.280       .  A
C923        C986   1.474       .  S
C926        C958   1.474       .  S
Fe927       O943   2.039       .  S
Fe927       O933   2.097       .  S
Fe927       O940   2.102       .  S
Fe927       O932   2.049       .  S
Fe927       O938   1.952       .  S
Fe928       O931   2.027       .  S
Fe928       O935   2.115       .  S
Fe928       O939   2.033       .  S
Fe928       O944   2.114       .  S
Fe928       O938   1.937       .  S
Fe929       O947   2.117       .  S
Fe929       O934   2.024       .  S
Fe929       O941   2.036       .  S
Fe929       O938   1.939       .  S
O930        C937   1.276       .  A
O931        C945   1.264       .  A
O933        C936   1.278       .  A
O934        C946   1.260       .  A
O935        C948   1.281       .  A
C936        O941   1.266       .  A
C936        C954   1.466       .  S
C937        C982   1.469       .  S
O939        C942   1.263       .  A
O940        C942   1.274       .  A
C942        C962   1.472       .  S
O943        C948   1.267       .  A
O944        C946   1.276       .  A
C945        O947   1.279       .  A
C945        C998   1.470       .  S
C946        C950   1.474       .  S
C948        C974   1.475       .  S
C949        C950   1.352       .  D
C949        H951   1.088   1_655  S
C950        H952   1.086       .  S
C953        C954   1.351   1_455  D
C954        H956   1.088       .  S
C957        C958   1.352       .  D
C957        H959   1.086       .  S
C958        H960   1.087       .  S
C961        C962   1.348       .  D
C961        H963   1.088       .  S
C962        H964   1.086       .  S
C965       C1288   1.474       .  S
C965        C966   1.353       .  D
C965        H967   1.086       .  S
C966        H968   1.087       .  S
C969        C970   1.352       .  D
C969        H971   1.086       .  S
C970       C1278   1.467       .  S
C970       H1380   1.087       .  S
H972       C1378   1.087   1_545  S
C973        C974   1.352       .  D
C973        H975   1.086       .  S
C974        H976   1.087       .  S
C977        C978   1.350       .  D
C977        H979   1.088       .  S
C978        H980   1.086       .  S
C981        C982   1.350       .  D
C981        H983   1.086       .  S
C982        H984   1.088       .  S
C985       C1190   1.353   1_554  D
C985        H987   1.087       .  S
C986       C1189   1.352       .  D
C986        H988   1.086       .  S
C989        C990   1.352       .  D
C989        H991   1.086       .  S
C990        H992   1.087       .  S
C993        C994   1.350       .  D
C993        H995   1.088       .  S
C994        H996   1.086       .  S
C997        C998   1.351       .  D
C997        H999   1.087       .  S
C998       H1000   1.086       .  S
C1001      C1002   1.349       .  D
C1001      H1003   1.086       .  S
C1002      H1004   1.088       .  S
C1005      C1052   1.467       .  S
C1005      C1006   1.352       .  D
C1005      H1007   1.088       .  S
C1006      H1008   1.086       .  S
C1009      C1010   1.352       .  D
C1009      H1011   1.088       .  S
C1010      H1012   1.086       .  S
C1013      C1014   1.352       .  D
C1013      H1015   1.086       .  S
C1014      H1016   1.087       .  S
C1017      C1018   1.349       .  D
C1017      H1019   1.086       .  S
C1018      H1020   1.088       .  S
Fe1021     O1037   2.036       .  S
Fe1021     O1027   2.103       .  S
Fe1021     O1034   2.106       .  S
Fe1021     O1026   2.048       .  S
Fe1021     O1032   1.953       .  S
Fe1022     O1025   2.030       .  S
Fe1022     O1029   2.116       .  S
Fe1022     O1033   2.032       .  S
Fe1022     O1038   2.110       .  S
Fe1022     O1032   1.937       .  S
Fe1023     O1041   2.119       .  S
Fe1023     O1028   2.024       .  S
Fe1023     O1035   2.037       .  S
Fe1023     O1024   2.092       .  S
Fe1023     O1032   1.936       .  S
O1024      C1031   1.276       .  A
O1025      C1039   1.265       .  A
O1026      C1031   1.267       .  A
O1027      C1030   1.279       .  A
O1028      C1040   1.260       .  A
O1029      C1042   1.281       .  A
C1030      O1035   1.266       .  A
C1030      C1213   1.469       .  S
C1031      C1222   1.470       .  S
O1033      C1036   1.262       .  A
O1034      C1036   1.274       .  A
C1036      C1205   1.473       .  S
O1037      C1042   1.267       .  A
O1038      C1040   1.275       .  A
C1039      O1041   1.280       .  A
C1039      C1217   1.473       .  S
C1040      C1210   1.472       .  S
C1042      C1201   1.473       .  S
Fe1043     O1059   2.039       .  S
Fe1043     O1049   2.101       .  S
Fe1043     O1056   2.105       .  S
Fe1043     O1048   2.050       .  S
Fe1043     O1054   1.955       .  S
Fe1044     O1047   2.030       .  S
Fe1044     O1051   2.117       .  S
Fe1044     O1055   2.031       .  S
Fe1044     O1060   2.112       .  S
Fe1044     O1054   1.936       .  S
Fe1045     O1063   2.118       .  S
Fe1045     O1050   2.024       .  S
Fe1045     O1057   2.034       .  S
Fe1045     O1046   2.090       .  S
Fe1045     O1054   1.936       .  S
O1046      C1053   1.276       .  A
O1047      C1061   1.265       .  A
O1048      C1053   1.267       .  A
O1049      C1052   1.278       .  A
O1050      C1062   1.260       .  A
O1051      C1064   1.281       .  A
C1052      O1057   1.265       .  A
C1053      C1197   1.470       .  S
O1055      C1058   1.262       .  A
O1056      C1058   1.274       .  A
C1058      C1185   1.473       .  S
O1059      C1064   1.268       .  A
O1060      C1062   1.275       .  A
C1061      O1063   1.280       .  A
C1061      C1193   1.474       .  S
C1062      C1214   1.473       .  S
C1064      C1189   1.475       .  S
Fe1065     O1081   2.036       .  S
Fe1065     O1071   2.104       .  S
Fe1065     O1078   2.107       .  S
Fe1065     O1478   2.047   1_545  S
Fe1066     O1069   2.028       .  S
Fe1066     O1077   2.033       .  S
Fe1066     O1082   2.113       .  S
Fe1066     O1076   1.935       .  S
Fe1067     O1493   2.119       .  S
Fe1067     O1072   2.022       .  S
Fe1067     O1283   2.036       .  S
Fe1067     O1484   1.936       .  S
O1068      C1075   1.276       .  A
O1069      C1083   1.265       .  A
O1070     Fe1473   2.047       .  S
O1070      C1075   1.267       .  A
O1071      C1074   1.279       .  A
O1072      C1492   1.259       .  A
O1073      C1086   1.283       .  A
C1074      O1079   1.266       .  A
C1074      C1582   1.469   1_545  S
C1075      C1181   1.468       .  S
O1076     Fe1475   1.937       .  S
O1077      C1080   1.262       .  A
O1079     Fe1271   2.037   1_556  S
C1080      C1198   1.475       .  S
O1081      C1086   1.268       .  A
O1082      C1084   1.276       .  A
C1083      O1085   1.279       .  A
C1083      C1177   1.471       .  S
C1084      O1480   1.260   1_545  A
C1084      C1577   1.475   1_545  S
O1085     Fe1475   2.115       .  S
C1086      C1218   1.476       .  S
Fe1087     O1103   2.039       .  S
Fe1087     O1093   2.103       .  S
Fe1087     O1100   2.108       .  S
Fe1087     O1092   2.050       .  S
Fe1087     O1098   1.954       .  S
Fe1088     O1091   2.028       .  S
Fe1088     O1095   2.118       .  S
Fe1088     O1099   2.032       .  S
Fe1088     O1104   2.115       .  S
Fe1088     O1098   1.936       .  S
Fe1089     O1107   2.120       .  S
Fe1089     O1094   2.023       .  S
Fe1089     O1101   2.036       .  S
Fe1089     O1498   2.090       .  S
Fe1089     O1098   1.936       .  S
O1090     Fe1497   2.088   1_545  S
O1090      C1097   1.276       .  A
O1091      C1105   1.265       .  A
O1092      C1505   1.268       .  A
O1093      C1096   1.279       .  A
O1094      C1106   1.259       .  A
O1095      C1108   1.282       .  A
C1096      O1101   1.266       .  A
C1096      C1170   1.468       .  S
C1097      O1500   1.267   1_545  A
C1097      C1165   1.468       .  S
O1099      C1102   1.262       .  A
O1100      C1102   1.274       .  A
C1102      C1221   1.475       .  S
O1103      C1108   1.268       .  A
O1104      C1106   1.276       .  A
C1105      O1107   1.280       .  A
C1105      C1161   1.474       .  S
C1106      C1173   1.475       .  S
C1108      C1194   1.476       .  S
Fe1109     O1125   2.038       .  S
Fe1109     O1115   2.101       .  S
Fe1109     O1122   2.104       .  S
Fe1109     O1120   1.954       .  S
Fe1110     O1113   2.029       .  S
Fe1110     O1117   2.119       .  S
Fe1110     O1121   2.031       .  S
Fe1110     O1120   1.936       .  S
Fe1111     O1129   2.119       .  S
Fe1111     O1123   2.036       .  S
Fe1111     O1120   1.936       .  S
O1112      C1119   1.275       .  A
O1113      C1127   1.265       .  A
O1114      C1119   1.267       .  A
O1115      C1118   1.278       .  A
O1117      C1130   1.282       .  A
C1118      O1123   1.266       .  A
C1119      C1206   1.468       .  S
O1121      C1124   1.261       .  A
O1122      C1124   1.274       .  A
C1124      C1182   1.472       .  S
O1125      C1130   1.268       .  A
O1126      C1128   1.275       .  A
C1127      O1129   1.280       .  A
C1127      C1190   1.473       .  S
C1130      C1162   1.475       .  S
Fe1131     O1147   2.034       .  S
Fe1131     O1137   2.100       .  S
Fe1131     O1144   2.105       .  S
Fe1131     O1136   2.046       .  S
Fe1131     O1142   1.951       .  S
Fe1132     O1135   2.028       .  S
Fe1132     O1139   2.117       .  S
Fe1132     O1143   2.031       .  S
Fe1132     O1148   2.112       .  S
Fe1132     O1142   1.934       .  S
Fe1133     O1151   2.117       .  S
Fe1133     O1138   2.023       .  S
Fe1133     O1145   2.035       .  S
Fe1133     O1142   1.934       .  S
O1134      C1141   1.276       .  A
O1135      C1149   1.265       .  A
O1137      C1140   1.278       .  A
O1138      C1150   1.260       .  A
O1139      C1152   1.282       .  A
C1140      O1145   1.266       .  A
C1140      C1158   1.466       .  S
C1141      C1186   1.469       .  S
O1143      C1146   1.262       .  A
O1144      C1146   1.274       .  A
C1146      C1166   1.473       .  S
O1147      C1152   1.267       .  A
O1148      C1150   1.275       .  A
C1149      O1151   1.279       .  A
C1149      C1202   1.471       .  S
C1150      C1154   1.473       .  S
C1152      C1178   1.473       .  S
C1153      C1154   1.351       .  D
C1153      H1155   1.088   1_655  S
C1154      H1156   1.086       .  S
C1157      C1158   1.351   1_455  D
C1158      H1160   1.088       .  S
C1161      C1162   1.353       .  D
C1161      H1163   1.086       .  S
C1162      H1164   1.087       .  S
C1165      C1166   1.349       .  D
C1165      H1167   1.088       .  S
C1166      H1168   1.086       .  S
C1169      C1492   1.474       .  S
C1169      C1170   1.353       .  D
C1169      H1171   1.086       .  S
C1170      H1172   1.087       .  S
C1173      C1174   1.354       .  D
C1173      H1175   1.086       .  S
C1174      C1482   1.470       .  S
C1174      H1584   1.087       .  S
H1176      C1582   1.087   1_545  S
C1177      C1178   1.352       .  D
C1177      H1179   1.086       .  S
C1178      H1180   1.087       .  S
C1181      C1182   1.349       .  D
C1181      H1183   1.088       .  S
C1182      H1184   1.086       .  S
C1185      C1186   1.350       .  D
C1185      H1187   1.086       .  S
C1186      H1188   1.088       .  S
C1189      H1191   1.087       .  S
C1190      H1192   1.086       .  S
C1193      C1194   1.352       .  D
C1193      H1195   1.086       .  S
C1194      H1196   1.087       .  S
C1197      C1198   1.349       .  D
C1197      H1199   1.088       .  S
C1198      H1200   1.086       .  S
C1201      C1202   1.352       .  D
C1201      H1203   1.087       .  S
C1202      H1204   1.086       .  S
C1205      C1206   1.349       .  D
C1205      H1207   1.086       .  S
C1206      H1208   1.088       .  S
C1209      C1210   1.351       .  D
C1209      H1211   1.087       .  S
C1210      H1212   1.086       .  S
C1213      C1214   1.352       .  D
C1213      H1215   1.088       .  S
C1214      H1216   1.086       .  S
C1217      C1218   1.353       .  D
C1217      H1219   1.086       .  S
C1218      H1220   1.087       .  S
C1221      C1222   1.350       .  D
C1221      H1223   1.086       .  S
C1222      H1224   1.088       .  S
Fe1225     O1241   2.036       .  S
Fe1225     O1231   2.104       .  S
Fe1225     O1238   2.108       .  S
Fe1225     O1230   2.046       .  S
Fe1225     O1236   1.952       .  S
Fe1226     O1229   2.028       .  S
Fe1226     O1233   2.116       .  S
Fe1226     O1237   2.032       .  S
Fe1226     O1242   2.111       .  S
Fe1226     O1236   1.935       .  S
Fe1227     O1245   2.118       .  S
Fe1227     O1232   2.024       .  S
Fe1227     O1239   2.035       .  S
Fe1227     O1228   2.091       .  S
Fe1227     O1236   1.936       .  S
O1228      C1235   1.276       .  A
O1229      C1243   1.265       .  A
O1230      C1235   1.267       .  A
O1231      C1234   1.279       .  A
O1232      C1244   1.260       .  A
O1233      C1246   1.281       .  A
C1234      O1239   1.265       .  A
C1234      C1417   1.468       .  S
C1235      C1426   1.468       .  S
O1237      C1240   1.262       .  A
O1238      C1240   1.274       .  A
C1240      C1409   1.475       .  S
O1241      C1246   1.267       .  A
O1242      C1244   1.275       .  A
C1243      O1245   1.280       .  A
C1243      C1421   1.472       .  S
C1244      C1414   1.472       .  S
C1246      C1405   1.473       .  S
Fe1247     O1263   2.036       .  S
Fe1247     O1253   2.103   1_554  S
Fe1247     O1260   2.108       .  S
Fe1247     O1252   2.049       .  S
Fe1247     O1258   1.951       .  S
Fe1248     O1251   2.030       .  S
Fe1248     O1255   2.119       .  S
Fe1248     O1259   2.032       .  S
Fe1248     O1264   2.112       .  S
Fe1248     O1258   1.937       .  S
Fe1249     O1267   2.117       .  S
Fe1249     O1254   2.023       .  S
Fe1249     O1261   2.035       .  S
Fe1249     O1250   2.091       .  S
Fe1249     O1258   1.936       .  S
O1250      C1257   1.276       .  A
O1251      C1265   1.266       .  A
O1252      C1257   1.267       .  A
O1253      C1256   1.279   1_556  A
O1254      C1266   1.259       .  A
O1255      C1268   1.282       .  A
C1256      O1261   1.266       .  A
C1256      C1617   1.469   1_554  S
C1257      C1401   1.470       .  S
O1259      C1262   1.262       .  A
O1260      C1262   1.275       .  A
C1262      C1389   1.475       .  S
O1263      C1268   1.267       .  A
O1264      C1266   1.275       .  A
C1265      O1267   1.279       .  A
C1265      C1397   1.471       .  S
C1266      C1418   1.472       .  S
C1268      C1393   1.475       .  S
Fe1269     O1285   2.037       .  S
Fe1269     O1275   2.101       .  S
Fe1269     O1282   2.105       .  S
Fe1269     O1484   1.951       .  S
Fe1270     O1273   2.028       .  S
Fe1270     O1481   2.118   1_554  S
Fe1270     O1281   2.032       .  S
Fe1270     O1286   2.112       .  S
Fe1270     O1280   1.937   1_554  S
Fe1271     O1276   2.020   1_545  S
Fe1271     O1476   2.091   1_544  S
O1272     Fe1475   2.090   1_565  S
O1272      C1279   1.276       .  A
O1273      C1287   1.265       .  A
O1274      C1279   1.267       .  A
O1275      C1278   1.279       .  A
O1277     Fe1474   2.117       .  S
O1277      C1290   1.281       .  A
C1278      O1283   1.266       .  A
C1279      C1385   1.468       .  S
O1280     Fe1473   1.953       .  S
O1281      C1284   1.261       .  A
O1282      C1488   1.274       .  A
C1284      O1486   1.274   1_554  A
C1284      C1402   1.475       .  S
O1285      C1290   1.267       .  A
O1286      C1288   1.276       .  A
C1287      O1289   1.280       .  A
C1287      C1381   1.474       .  S
C1290      C1422   1.474       .  S
Fe1291     O1307   2.037       .  S
Fe1291     O1297   2.103       .  S
Fe1291     O1304   2.105       .  S
Fe1291     O1296   2.049       .  S
Fe1291     O1302   1.951       .  S
Fe1292     O1295   2.029       .  S
Fe1292     O1299   2.118       .  S
Fe1292     O1303   2.031       .  S
Fe1292     O1308   2.111       .  S
Fe1292     O1302   1.935       .  S
Fe1293     O1311   2.113       .  S
Fe1293     O1298   2.021       .  S
Fe1293     O1305   2.034       .  S
Fe1293     O1302   1.934       .  S
O1294      C1301   1.276       .  A
O1295      C1309   1.265       .  A
O1297      C1300   1.279       .  A
O1298      C1310   1.259       .  A
O1299      C1312   1.282       .  A
C1300      O1305   1.265       .  A
C1300      C1374   1.467       .  S
C1301      C1369   1.469       .  S
O1303      C1306   1.261       .  A
O1304      C1306   1.273       .  A
C1306      C1425   1.472       .  S
O1307      C1312   1.268       .  A
O1308      C1310   1.275       .  A
C1309      O1311   1.279       .  A
C1309      C1365   1.470       .  S
C1310      C1377   1.472       .  S
C1312      C1398   1.474       .  S
Fe1313     O1329   2.036       .  S
Fe1313     O1319   2.101       .  S
Fe1313     O1326   2.104       .  S
Fe1313     O1324   1.953       .  S
Fe1314     O1317   2.029       .  S
Fe1314     O1321   2.114       .  S
Fe1314     O1325   2.032       .  S
Fe1314     O1534   2.109       .  S
Fe1314     O1324   1.938       .  S
Fe1315     O1333   2.119       .  S
Fe1315     O1327   2.038       .  S
Fe1315     O1324   1.936       .  S
O1316      C1323   1.276       .  A
O1317      C1331   1.265       .  A
O1318      C1323   1.267       .  A
O1319      C1322   1.278       .  A
O1321      C1334   1.281       .  A
C1322      O1327   1.266       .  A
C1323      C1410   1.470       .  S
O1325      C1328   1.262       .  A
O1326      C1328   1.274       .  A
C1328      C1386   1.472       .  S
O1329      C1334   1.267       .  A
O1330     Fe1518   2.111   1_554  S
O1330      C1332   1.275       .  A
C1331      O1333   1.280       .  A
C1331      C1394   1.474       .  S
C1334      C1366   1.473       .  S
Fe1335     O1351   2.037       .  S
Fe1335     O1341   2.100       .  S
Fe1335     O1348   2.105       .  S
Fe1335     O1340   2.049       .  S
Fe1335     O1346   1.953       .  S
Fe1336     O1339   2.028       .  S
Fe1336     O1343   2.116       .  S
Fe1336     O1347   2.032       .  S
Fe1336     O1352   2.111       .  S
Fe1336     O1346   1.936       .  S
Fe1337     O1355   2.116       .  S
Fe1337     O1342   2.026       .  S
Fe1337     O1349   2.038       .  S
Fe1337     O1346   1.938       .  S
O1338      C1345   1.276       .  A
O1339      C1353   1.265       .  A
O1341      C1344   1.278       .  A
O1342      C1354   1.261       .  A
O1343      C1356   1.281       .  A
C1344      O1349   1.266       .  A
C1344      C1362   1.467       .  S
C1345      C1390   1.470       .  S
O1347      C1350   1.262       .  A
O1348      C1350   1.274       .  A
C1350      C1370   1.474       .  S
O1351      C1356   1.267       .  A
O1352      C1354   1.275       .  A
C1353      O1355   1.279       .  A
C1353      C1406   1.471       .  S
C1354      C1358   1.474       .  S
C1356      C1382   1.474       .  S
C1357      C1358   1.352       .  D
C1357      H1359   1.088   1_655  S
C1358      H1360   1.086       .  S
C1361      C1362   1.352   1_455  D
C1362      H1364   1.088       .  S
C1365      C1366   1.351       .  D
C1365      H1367   1.086       .  S
C1366      H1368   1.087       .  S
C1369      C1370   1.349       .  D
C1369      H1371   1.088       .  S
C1370      H1372   1.086       .  S
C1373      C1374   1.353       .  D
C1373      H1375   1.086   1_565  S
C1374      H1376   1.087       .  S
C1377      C1378   1.352       .  D
C1377      H1379   1.086       .  S
C1381      C1382   1.353       .  D
C1381      H1383   1.086       .  S
C1382      H1384   1.087       .  S
C1385      C1386   1.349       .  D
C1385      H1387   1.088       .  S
C1386      H1388   1.086       .  S
C1389      C1390   1.350       .  D
C1389      H1391   1.086       .  S
C1390      H1392   1.088       .  S
C1393      C1598   1.352   1_554  D
C1393      H1395   1.087       .  S
C1394      C1597   1.352       .  D
C1394      H1396   1.086       .  S
C1397      C1398   1.351       .  D
C1397      H1399   1.086       .  S
C1398      H1400   1.087       .  S
C1401      C1402   1.350       .  D
C1401      H1403   1.088       .  S
C1402      H1404   1.086       .  S
C1405      C1406   1.351       .  D
C1405      H1407   1.087       .  S
C1406      H1408   1.086       .  S
C1409      C1410   1.350       .  D
C1409      H1411   1.086       .  S
C1410      H1412   1.088       .  S
C1413      C1460   1.468       .  S
C1413      C1414   1.352       .  D
C1413      H1415   1.088       .  S
C1414      H1416   1.086       .  S
C1417      C1418   1.352       .  D
C1417      H1419   1.088       .  S
C1418      H1420   1.086       .  S
C1421      C1422   1.352       .  D
C1421      H1423   1.086       .  S
C1422      H1424   1.087       .  S
C1425      C1426   1.350       .  D
C1425      H1427   1.086       .  S
C1426      H1428   1.088       .  S
Fe1429     O1445   2.036       .  S
Fe1429     O1435   2.101       .  S
Fe1429     O1442   2.106       .  S
Fe1429     O1434   2.048       .  S
Fe1429     O1440   1.953       .  S
Fe1430     O1433   2.029       .  S
Fe1430     O1437   2.119       .  S
Fe1430     O1441   2.033       .  S
Fe1430     O1446   2.112       .  S
Fe1430     O1440   1.937       .  S
Fe1431     O1449   2.118       .  S
Fe1431     O1436   2.024       .  S
Fe1431     O1443   2.038       .  S
Fe1431     O1432   2.090       .  S
Fe1431     O1440   1.938       .  S
O1432      C1439   1.276       .  A
O1433      C1447   1.265       .  A
O1434      C1439   1.267       .  A
O1435      C1438   1.278       .  A
O1436      C1448   1.260       .  A
O1437      C1450   1.282       .  A
C1438      O1443   1.266       .  A
C1438      C1621   1.469       .  S
C1439      C1630   1.469       .  S
O1441      C1444   1.262       .  A
O1442      C1444   1.274       .  A
C1444      C1613   1.474       .  S
O1445      C1450   1.267       .  A
O1446      C1448   1.275       .  A
C1447      O1449   1.280       .  A
C1447      C1625   1.473       .  S
C1448      C1618   1.473       .  S
C1450      C1609   1.475       .  S
Fe1451     O1467   2.038       .  S
Fe1451     O1457   2.101       .  S
Fe1451     O1464   2.105       .  S
Fe1451     O1456   2.048       .  S
Fe1451     O1462   1.954       .  S
Fe1452     O1455   2.029       .  S
Fe1452     O1459   2.118       .  S
Fe1452     O1463   2.031       .  S
Fe1452     O1468   2.112       .  S
Fe1452     O1462   1.936       .  S
Fe1453     O1471   2.117       .  S
Fe1453     O1458   2.024       .  S
Fe1453     O1465   2.036       .  S
Fe1453     O1454   2.088       .  S
Fe1453     O1462   1.937       .  S
O1454      C1461   1.276       .  A
O1455      C1469   1.265       .  A
O1456      C1461   1.267       .  A
O1457      C1460   1.279       .  A
O1458      C1470   1.260       .  A
O1459      C1472   1.282       .  A
C1460      O1465   1.266       .  A
C1461      C1605   1.468       .  S
O1463      C1466   1.262       .  A
O1464      C1466   1.274       .  A
C1466      C1593   1.473       .  S
O1467      C1472   1.268       .  A
O1468      C1470   1.275       .  A
C1469      O1471   1.279       .  A
C1469      C1601   1.472       .  S
C1470      C1622   1.474       .  S
C1472      C1597   1.475       .  S
Fe1473     O1489   2.038       .  S
Fe1473     O1479   2.104       .  S
Fe1473     O1486   2.107       .  S
Fe1474     O1477   2.027       .  S
Fe1474     O1485   2.031       .  S
Fe1474     O1490   2.114       .  S
Fe1474     O1484   1.936       .  S
Fe1475     O1480   2.023   1_545  S
O1476      C1483   1.276       .  A
O1477      C1491   1.265       .  A
O1478      C1483   1.267       .  A
O1479      C1482   1.279       .  A
O1481      C1494   1.282       .  A
C1482      O1487   1.266       .  A
C1483      C1589   1.468       .  S
O1485      C1488   1.262       .  A
C1488      C1606   1.473       .  S
O1489      C1494   1.268       .  A
O1490      C1492   1.276       .  A
C1491      O1493   1.280       .  A
C1491      C1585   1.471       .  S
C1494      C1626   1.475       .  S
Fe1495     O1511   2.036       .  S
Fe1495     O1501   2.101       .  S
Fe1495     O1508   2.106       .  S
Fe1495     O1500   2.047       .  S
Fe1495     O1506   1.953       .  S
Fe1496     O1499   2.027       .  S
Fe1496     O1503   2.118       .  S
Fe1496     O1507   2.032       .  S
Fe1496     O1512   2.115       .  S
Fe1496     O1506   1.935       .  S
Fe1497     O1515   2.118       .  S
Fe1497     O1502   2.024       .  S
Fe1497     O1509   2.038       .  S
Fe1497     O1506   1.937       .  S
O1498      C1505   1.276       .  A
O1499      C1513   1.265       .  A
O1501      C1504   1.278       .  A
O1502      C1514   1.260       .  A
O1503      C1516   1.282       .  A
C1504      O1509   1.266       .  A
C1504      C1578   1.468       .  S
C1505      C1573   1.469       .  S
O1507      C1510   1.262       .  A
O1508      C1510   1.274       .  A
C1510      C1629   1.474       .  S
O1511      C1516   1.267       .  A
O1512      C1514   1.276       .  A
C1513      O1515   1.280       .  A
C1513      C1569   1.472       .  S
C1514      C1581   1.475       .  S
C1516      C1602   1.474       .  S
Fe1517     O1533   2.036       .  S
Fe1517     O1523   2.100       .  S
Fe1517     O1530   2.104       .  S
Fe1517     O1528   1.951       .  S
Fe1518     O1521   2.029       .  S
Fe1518     O1525   2.117       .  S
Fe1518     O1529   2.031       .  S
Fe1518     O1528   1.935       .  S
Fe1519     O1537   2.119       .  S
Fe1519     O1531   2.036       .  S
Fe1519     O1528   1.936       .  S
O1520      C1527   1.277       .  A
O1521      C1535   1.265       .  A
O1522      C1527   1.267       .  A
O1523      C1526   1.279       .  A
O1525      C1538   1.281       .  A
C1526      O1531   1.266       .  A
C1527      C1614   1.470       .  S
O1529      C1532   1.262       .  A
O1530      C1532   1.274       .  A
C1532      C1590   1.472       .  S
O1533      C1538   1.267       .  A
O1534      C1536   1.275       .  A
C1535      O1537   1.280       .  A
C1535      C1598   1.472       .  S
C1538      C1570   1.473       .  S
Fe1539     O1555   2.034       .  S
Fe1539     O1545   2.100       .  S
Fe1539     O1552   2.106       .  S
Fe1539     O1544   2.046       .  S
Fe1539     O1550   1.951       .  S
Fe1540     O1543   2.029       .  S
Fe1540     O1547   2.117       .  S
Fe1540     O1551   2.033       .  S
Fe1540     O1556   2.114       .  S
Fe1540     O1550   1.936       .  S
Fe1541     O1559   2.119       .  S
Fe1541     O1546   2.023       .  S
Fe1541     O1553   2.036       .  S
Fe1541     O1550   1.935       .  S
O1542      C1549   1.275       .  A
O1543      C1557   1.265       .  A
O1545      C1548   1.278       .  A
O1546      C1558   1.259       .  A
O1547      C1560   1.281       .  A
C1548      O1553   1.266       .  A
C1548      C1566   1.466       .  S
C1549      C1594   1.468       .  S
O1551      C1554   1.262       .  A
O1552      C1554   1.274       .  A
C1554      C1574   1.475       .  S
O1555      C1560   1.267       .  A
O1556      C1558   1.276       .  A
C1557      O1559   1.280       .  A
C1557      C1610   1.473       .  S
C1558      C1562   1.474       .  S
C1560      C1586   1.473       .  S
C1561      C1562   1.353       .  D
C1561      H1563   1.088   1_655  S
C1562      H1564   1.086       .  S
C1565      C1566   1.351   1_455  D
C1566      H1568   1.088       .  S
C1569      C1570   1.352       .  D
C1569      H1571   1.086       .  S
C1570      H1572   1.087       .  S
C1573      C1574   1.349       .  D
C1573      H1575   1.088       .  S
C1574      H1576   1.086       .  S
C1577      C1578   1.352       .  D
C1577      H1579   1.086   1_565  S
C1578      H1580   1.087       .  S
C1581      C1582   1.353       .  D
C1581      H1583   1.086       .  S
C1585      C1586   1.352       .  D
C1585      H1587   1.086       .  S
C1586      H1588   1.087       .  S
C1589      C1590   1.349       .  D
C1589      H1591   1.088       .  S
C1590      H1592   1.086       .  S
C1593      C1594   1.349       .  D
C1593      H1595   1.086       .  S
C1594      H1596   1.088       .  S
C1597      H1599   1.087       .  S
C1598      H1600   1.086       .  S
C1601      C1602   1.352       .  D
C1601      H1603   1.086       .  S
C1602      H1604   1.087       .  S
C1605      C1606   1.349       .  D
C1605      H1607   1.088       .  S
C1606      H1608   1.086       .  S
C1609      C1610   1.352       .  D
C1609      H1611   1.087       .  S
C1610      H1612   1.086       .  S
C1613      C1614   1.350       .  D
C1613      H1615   1.086       .  S
C1614      H1616   1.088       .  S
C1617      C1618   1.353       .  D
C1617      H1619   1.087       .  S
C1618      H1620   1.086       .  S
C1621      C1622   1.352       .  D
C1621      H1623   1.087       .  S
C1622      H1624   1.086       .  S
C1625      C1626   1.352       .  D
C1625      H1627   1.086       .  S
C1626      H1628   1.087       .  S
C1629      C1630   1.350       .  D
C1629      H1631   1.086       .  S
C1630      H1632   1.088       .  S
