geometry optimzed in LAMMPS
_audit_creation_date              2020-12-01 
_audit_creation_method            'lammps2cif' 
_symmetry_space_group_name_H-M    'P1' 
_symmetry_Int_Tables_number       1 
_symmetry_cell_setting            triclinic 
loop_ 
_symmetry_equiv_pos_as_xyz 
  x,y,z 
_cell_length_a                    30.0245152 
_cell_length_b                    31.176409879102483 
_cell_length_c                    56.82957425670785 
_cell_angle_alpha                 90.00062639235135 
_cell_angle_beta                  89.93987280508918 
_cell_angle_gamma                 89.93664573983139 
loop_ 
_atom_site_label 
_atom_site_type_symbol 
_atom_site_fract_x 
_atom_site_fract_y 
_atom_site_fract_z 
_atom_site_charge 
O1          O  0.21238572  0.80606420  0.20099536    -0.72500
O2          O  0.10199603  0.79678096  0.23910520    -0.73400
O3          O  0.14390839  0.74491371  0.20461277    -0.62100
O4          O  0.16919677  0.85812112  0.23539886    -0.70500
O5          O  0.13294434  0.89188099  0.20680369    -0.70000
O6          O  0.10641602  0.77848106  0.17639880    -0.61300
O7          O  0.06406276  0.83078787  0.21118720    -0.73800
O8          O  0.17550795  0.83893901  0.17229386    -0.72600
Cu9        Cu  0.15826401  0.80033435  0.22095481     1.04600
Cu10       Cu  0.11839652  0.83623000  0.19064309     1.04300
C11         C  0.21140707  0.82293555  0.18055687     0.93700
C12         C  0.06589047  0.81310592  0.23146512     0.92900
C13         C  0.12149457  0.74396744  0.18551918     0.85000
C14         C  0.15395535  0.89264577  0.22633039     0.91300
N15         N  0.48025584  0.84663687  0.14651922    -0.26800
N16         N  0.45726347  0.82574977  0.16268748    -0.34700
C17         C  0.48346748  0.81810830  0.18136160     0.01500
C18         C  0.52492835  0.83505441  0.17662070     0.07600
C19         C  0.52188047  0.85278496  0.15439945    -0.05500
H20         H  0.47299199  0.80164914  0.19719264     0.08200
H21         H  0.54792875  0.86890416  0.14465891     0.09400
Cu22       Cu  0.39074018  0.81200049  0.15935554     0.44200
Cu23       Cu  0.45363823  0.86644060  0.11484494     0.42000
Cu24       Cu  0.33395145  0.85399206  0.10831008     0.43900
N25         N  0.32278888  0.81702109  0.15664446    -0.34200
N26         N  0.30161858  0.83349128  0.13837525    -0.28400
C27         C  0.25818725  0.83762874  0.14377952    -0.04500
C28         C  0.25222497  0.82319694  0.16656149     0.07700
C29         C  0.29366808  0.81011217  0.17410356     0.01500
H30         H  0.23325389  0.85136701  0.13229240     0.09100
H31         H  0.30247285  0.79829567  0.19139386     0.08200
N32         N  0.37542059  0.87748414  0.08229792    -0.35600
N33         N  0.41892474  0.88244860  0.08474986    -0.27800
C34         C  0.43590972  0.89826664  0.06465205    -0.03100
C35         C  0.40130032  0.90358353  0.04903293     0.05600
C36         C  0.36350749  0.88998732  0.06057584     0.03700
H37         H  0.47083110  0.90458660  0.06156368     0.08800
H38         H  0.33002093  0.88861300  0.05364663     0.07600
N39         N  0.31466941  0.80431538  0.77840446    -0.26800
N40         N  0.33769118  0.78346031  0.76220096    -0.34700
C41         C  0.31048077  0.77278558  0.74440861     0.01500
C42         C  0.26848732  0.78798167  0.74969083     0.07600
C43         C  0.27213335  0.80743984  0.77141399    -0.05500
H44         H  0.32120884  0.75795190  0.72813641     0.08200
H45         H  0.24659629  0.82525118  0.78066084     0.09400
Cu46       Cu  0.40598814  0.77919188  0.76223864     0.44200
Cu47       Cu  0.34302615  0.83567288  0.80655975     0.42000
Cu48       Cu  0.46181102  0.85090022  0.80257541     0.43900
N49         N  0.47313387  0.79189317  0.76117625    -0.34200
N50         N  0.49364390  0.81829395  0.77577172    -0.28400
C51         C  0.53663056  0.82144417  0.76942353    -0.04500
C52         C  0.54308357  0.79613172  0.74977163     0.07700
C53         C  0.50228086  0.77783087  0.74500882     0.01500
H54         H  0.56098725  0.84147975  0.77810780     0.09100
H55         H  0.49410746  0.75649853  0.73062490     0.08200
N56         N  0.42243895  0.87880514  0.82815213    -0.35600
N57         N  0.37899411  0.87268738  0.82981108    -0.27800
C58         C  0.36382602  0.89207560  0.84934932    -0.03100
C59         C  0.39945884  0.91144558  0.86030234     0.05600
C60         C  0.43615287  0.90224431  0.84660675     0.03700
H61         H  0.33000405  0.88993442  0.85579805     0.08800
H62         H  0.47054953  0.90952251  0.85052666     0.07600
N63         N  0.98207924  0.80027605  0.27677483    -0.26800
N64         N  0.95814974  0.81849715  0.26003097    -0.34700
C65         C  0.98423000  0.82629514  0.24130183     0.01500
C66         C  0.02653639  0.81202793  0.24655537     0.07600
C67         C  0.02416958  0.79592896  0.26917639    -0.05500
H68         H  0.97287069  0.84010397  0.22489168     0.08200
H69         H  0.05077349  0.78125707  0.27917895     0.09400
Cu70       Cu  0.89049067  0.82648769  0.26223407     0.44200
Cu71       Cu  0.95556602  0.77838550  0.30812320     0.42000
Cu72       Cu  0.83487660  0.77344517  0.31063364     0.43900
N73         N  0.82281427  0.81857288  0.26439887    -0.34200
N74         N  0.80210722  0.79843128  0.28169594    -0.28400
C75         C  0.75851830  0.79567165  0.27646028    -0.04500
C76         C  0.75197103  0.81488075  0.25481236     0.07700
C77         C  0.79327534  0.82912128  0.24772080     0.01500
H78         H  0.73379069  0.77997175  0.28730260     0.09100
H79         H  0.80159502  0.84480969  0.23130489     0.08200
N80         N  0.87635941  0.75097795  0.33696318    -0.35600
N81         N  0.92033807  0.75317658  0.33616160    -0.27800
C82         C  0.93721567  0.73605652  0.35596014    -0.03100
C83         C  0.90210089  0.72237013  0.36966114     0.05600
C84         C  0.86402971  0.73237613  0.35728813     0.03700
H85         H  0.97230453  0.73400212  0.36006649     0.08800
H86         H  0.82996638  0.72695657  0.36268761     0.07600
N87         N  0.99943078  0.76769392  0.63928293    -0.26800
N88         N  0.97682605  0.78498275  0.65684162    -0.34700
C89         C  0.00545305  0.79893052  0.67325120     0.01500
C90         C  0.04807788  0.78956702  0.66570734     0.07600
C91         C  0.04316652  0.77001891  0.64405576    -0.05500
H92         H  0.99575703  0.81148942  0.69025983     0.08200
H93         H  0.06908975  0.75558051  0.63344065     0.09400
Cu94       Cu  0.90875952  0.78049018  0.66020214     0.44200
Cu95       Cu  0.96964900  0.73480561  0.61205400     0.42000
Cu96       Cu  0.85144806  0.71265095  0.61837309     0.43900
N97         N  0.84225968  0.76516162  0.66261081    -0.34200
N98         N  0.82099427  0.74048143  0.64741313    -0.28400
C99         C  0.77818611  0.73707384  0.65415628    -0.04500
C100        C  0.77263883  0.76052378  0.67462179     0.07700
C101        C  0.81385700  0.77781034  0.67950130     0.01500
H102        H  0.75306997  0.71887589  0.64487549     0.09100
H103        H  0.82258789  0.79832427  0.69414964     0.08200
N104        N  0.89011201  0.69109894  0.59047390    -0.35600
N105        N  0.93308512  0.69947410  0.58824439    -0.27800
C106        C  0.94745752  0.68464542  0.56738493    -0.03100
C107        C  0.91193030  0.66587429  0.55605231     0.05600
C108        C  0.87599559  0.67072205  0.57099457     0.03700
H109        H  0.98046969  0.68990163  0.56034236     0.08800
H110        H  0.84163802  0.66286104  0.56731264     0.07600
O111        O  0.15808038  0.71693172  0.70678104    -0.72500
O112        O  0.19818670  0.82921795  0.67920258    -0.73400
O113        O  0.23185599  0.77181558  0.71384538    -0.62100
O114        O  0.12432054  0.77420563  0.67231699    -0.70500
O115        O  0.08690172  0.80872972  0.70027424    -0.70000
O116        O  0.19426414  0.80740628  0.74133737    -0.61300
O117        O  0.16047889  0.86420101  0.70684960    -0.73800
O118        O  0.12153625  0.75226489  0.73473343    -0.72600
Cu119      Cu  0.17946737  0.77186033  0.69202124     1.04600
Cu120      Cu  0.13947945  0.80943616  0.72171774     1.04300
C121        C  0.13400643  0.71702198  0.72533396     0.93700
C122        C  0.18544640  0.86435640  0.68863722     0.92900
C123        C  0.22973086  0.78895170  0.73423000     0.85000
C124        C  0.08849089  0.79137263  0.67995613     0.91300
N125        N  0.48517716  0.29376070  0.14683179    -0.26800
N126        N  0.46108221  0.31191659  0.16357258    -0.34700
C127        C  0.48753774  0.32236825  0.18169464     0.01500
C128        C  0.53037788  0.31009777  0.17614602     0.07600
C129        C  0.52788934  0.29217667  0.15390097    -0.05500
H130        H  0.47614941  0.33689236  0.19792533     0.08200
H131        H  0.55488979  0.27838596  0.14378707     0.09400
Cu132      Cu  0.39300404  0.31787763  0.16245474     0.44200
Cu133      Cu  0.45777388  0.26981886  0.11601438     0.42000
Cu134      Cu  0.33565959  0.26762782  0.11493062     0.43900
N135        N  0.32504362  0.31072176  0.16152162    -0.34200
N136        N  0.30348912  0.29146668  0.14426137    -0.28400
C137        C  0.26005820  0.28883091  0.14993538    -0.04500
C138        C  0.25445614  0.30725405  0.17186942     0.07700
C139        C  0.29620225  0.32090581  0.17864488     0.01500
H140        H  0.23479830  0.27383326  0.13916393     0.09100
H141        H  0.30525511  0.33599044  0.19511173     0.08200
N142        N  0.37598891  0.24529609  0.08814133    -0.35600
N143        N  0.42007411  0.24611835  0.08833185    -0.27800
C144        C  0.43529103  0.22937407  0.06802450    -0.03100
C145        C  0.39897365  0.21748771  0.05470033     0.05600
C146        C  0.36199596  0.22804444  0.06780227     0.03700
H147        H  0.47005270  0.22647163  0.06329440     0.08800
H148        H  0.32748942  0.22396134  0.06287995     0.07600
N149        N  0.31303963  0.25412162  0.78056920    -0.26800
N150        N  0.33745950  0.27515136  0.76505552    -0.34700
C151        C  0.31086068  0.29099289  0.74814126     0.01500
C152        C  0.26764160  0.27927160  0.75334641     0.07600
C153        C  0.27014330  0.25611420  0.77404509    -0.05500
H154        H  0.32243738  0.30773632  0.73261791     0.08200
H155        H  0.24315164  0.23995718  0.78302090     0.09400
Cu156      Cu  0.40593920  0.27600426  0.76604608     0.44200
Cu157      Cu  0.33976123  0.21949664  0.80816188     0.42000
Cu158      Cu  0.46026038  0.20763264  0.80887764     0.43900
N159        N  0.47364119  0.26596646  0.76744370    -0.34200
N160        N  0.49388697  0.24069973  0.78275770    -0.28400
C161        C  0.53767040  0.23948051  0.77766464    -0.04500
C162        C  0.54487771  0.26504097  0.75814471     0.07700
C163        C  0.50369057  0.28130752  0.75217161     0.01500
H164        H  0.56202166  0.22030941  0.78695499     0.09100
H165        H  0.49580539  0.30169422  0.73732987     0.08200
N166        N  0.41826682  0.18269054  0.83432786    -0.35600
N167        N  0.37446474  0.18725346  0.83410254    -0.27800
C168        C  0.35771432  0.17262694  0.85451207    -0.03100
C169        C  0.39261769  0.15807754  0.86808655     0.05600
C170        C  0.43052557  0.16504384  0.85491214     0.03700
H171        H  0.32326486  0.17575249  0.85981445     0.08800
H172        H  0.46462291  0.16108763  0.86061416     0.07600
N173        N  0.09457569  0.47932092  0.15013958    -0.26800
N174        N  0.11194690  0.50135206  0.16776235    -0.34700
C175        C  0.12518896  0.47400507  0.18468892     0.01500
C176        C  0.11548665  0.43280228  0.17739867     0.07600
C177        C  0.09604861  0.43731847  0.15546087    -0.05500
H178        H  0.14065063  0.48347753  0.20107251     0.08200
H179        H  0.08446393  0.41191234  0.14403738     0.09400
Cu180      Cu  0.11610629  0.56752217  0.16820610     0.44200
Cu181      Cu  0.07175629  0.50718938  0.11916697     0.42000
Cu182      Cu  0.07547626  0.62325236  0.11658232     0.43900
N183        N  0.11184796  0.63354845  0.16569321    -0.34200
N184        N  0.09608364  0.65398074  0.14708425    -0.28400
C185        C  0.09656292  0.69640837  0.15138351    -0.04500
C186        C  0.11358122  0.70282691  0.17371648     0.07700
C187        C  0.12304844  0.66235667  0.18225489     0.01500
H188        H  0.08584613  0.72075426  0.13905368     0.09100
H189        H  0.13689369  0.65436307  0.19927468     0.08200
N190        N  0.05856858  0.58479741  0.08815260    -0.35600
N191        N  0.05685366  0.54242213  0.08912575    -0.27800
C192        C  0.04736722  0.52708561  0.06756178    -0.03100
C193        C  0.04286281  0.56147170  0.05244537     0.05600
C194        C  0.05026256  0.59754038  0.06595508     0.02900
H195        H  0.04555989  0.49341426  0.06308167     0.08800
H196        H  0.05110437  0.63046748  0.05997732     0.07600
N197        N  0.09924721  0.62901612  0.76291736    -0.26800
N198        N  0.11381416  0.60728161  0.74446550    -0.34700
C199        C  0.12772785  0.63518001  0.72793476     0.01500
C200        C  0.12127817  0.67632384  0.73642719     0.07600
C201        C  0.10314076  0.67120694  0.75859573    -0.05500
H202        H  0.14208236  0.62615814  0.71117109     0.08200
H203        H  0.09467447  0.69626617  0.77099364     0.09400
Cu204      Cu  0.11509565  0.54073579  0.74322765     0.44200
Cu205      Cu  0.07749751  0.60084757  0.79384380     0.42000
Cu206      Cu  0.07108481  0.48561921  0.79490709     0.43900
N207        N  0.11288408  0.47450904  0.74697755    -0.34200
N208        N  0.09589318  0.45450875  0.76545100    -0.28400
C209        C  0.10052339  0.41191058  0.76250390    -0.04500
C210        C  0.12178162  0.40485829  0.74127827     0.07700
C211        C  0.12904716  0.44515870  0.73187837     0.01500
H212        H  0.09026989  0.38797297  0.77517534     0.09100
H213        H  0.14529234  0.45266134  0.71537704     0.08200
N214        N  0.05697394  0.52379937  0.82382301    -0.35600
N215        N  0.05984635  0.56611714  0.82346913    -0.27800
C216        C  0.05226669  0.58134327  0.84525643    -0.03100
C217        C  0.04412659  0.54691916  0.85988551     0.05600
C218        C  0.04744380  0.51091441  0.84586006     0.03700
H219        H  0.05410425  0.61480013  0.85019301     0.08800
H220        H  0.04485846  0.47781274  0.85138626     0.07600
N221        N  0.80261832  0.36262056  0.28326586    -0.26800
N222        N  0.82432229  0.34204787  0.26646383    -0.34700
C223        C  0.79545642  0.32884942  0.25005707     0.01500
C224        C  0.75342537  0.34166804  0.25678403     0.07600
C225        C  0.75891600  0.36298481  0.27795158    -0.05500
H226        H  0.80465451  0.31207530  0.23409808     0.08200
H227        H  0.73334585  0.37832318  0.28842218     0.09400
Cu228      Cu  0.89211919  0.33517778  0.26498659     0.44200
Cu229      Cu  0.83477794  0.39014279  0.31178190     0.42000
Cu230      Cu  0.95691827  0.38454458  0.30998313     0.43900
N231        N  0.96022819  0.33777553  0.26385369    -0.34200
N232        N  0.98451699  0.35644689  0.28027384    -0.28400
C233        C  0.02747060  0.35535140  0.27363450    -0.04500
C234        C  0.02993453  0.33509678  0.25199346     0.07700
C235        C  0.98677429  0.32429526  0.24632549     0.01500
H236        H  0.05466236  0.36920619  0.28352405     0.09100
H237        H  0.97526342  0.30902459  0.23034912     0.08200
N238        N  0.92039021  0.41018094  0.33762290    -0.35600
N239        N  0.87635834  0.41235753  0.33823060    -0.27800
C240        C  0.86357478  0.42807808  0.35921998    -0.03100
C241        C  0.90131101  0.43632351  0.37225451     0.05600
C242        C  0.93671474  0.42445052  0.35821458     0.03700
H243        H  0.82937645  0.43117985  0.36495023     0.08800
H244        H  0.97156452  0.42417467  0.36298511     0.07600
N245        N  0.81461672  0.31583982  0.64971420    -0.26800
N246        N  0.83881398  0.29500051  0.66541560    -0.34700
C247        C  0.81246030  0.28181437  0.68310650     0.01500
C248        C  0.76958447  0.29500629  0.67826826     0.07600
C249        C  0.77201340  0.31634278  0.65696222    -0.05500
H250        H  0.82394971  0.26496896  0.69861531     0.08200
H251        H  0.74508120  0.33211642  0.64774090     0.09400
Cu252      Cu  0.90685485  0.28921673  0.66335116     0.44200
Cu253      Cu  0.84136516  0.34571461  0.62029398     0.42000
Cu254      Cu  0.96240035  0.35058995  0.61846502     0.43900
N255        N  0.97477325  0.29609649  0.66132674    -0.34200
N256        N  0.99549429  0.31918713  0.64519767    -0.28400
C257        C  0.03913877  0.32077660  0.65041712    -0.04500
C258        C  0.04576298  0.29769142  0.67086906     0.07700
C259        C  0.00441040  0.28240338  0.67725259     0.01500
H260        H  0.06366332  0.33903046  0.64071060     0.09100
H261        H  0.99601888  0.26454126  0.69297424     0.08200
N262        N  0.92139078  0.37797553  0.59350649    -0.35600
N263        N  0.87738470  0.37587176  0.59386040    -0.27800
C264        C  0.86135348  0.39464191  0.57428644    -0.03100
C265        C  0.89707089  0.40935364  0.56128774     0.05600
C266        C  0.93454652  0.39813998  0.57380994     0.03700
H267        H  0.82653726  0.39598945  0.56950662     0.08800
H268        H  0.96884824  0.40260150  0.56856352     0.07600
N269        N  0.16675182  0.97966205  0.26820924    -0.26800
N270        N  0.15669801  0.00183637  0.24911444    -0.34700
C271        C  0.15125677  0.97446131  0.23100663     0.01500
C272        C  0.15896491  0.93325365  0.23913695     0.07600
C273        C  0.16859853  0.93776946  0.26276987    -0.05500
H274        H  0.14244868  0.98386427  0.21327940     0.08200
H275        H  0.17537968  0.91239199  0.27525258     0.09400
Cu276      Cu  0.15362934  0.06839947  0.24882131     0.44200
Cu277      Cu  0.17665347  0.00705581  0.30091400     0.42000
Cu278      Cu  0.18732348  0.12245968  0.30299951     0.43900
N279        N  0.16138311  0.13435314  0.25212300    -0.34200
N280        N  0.17524210  0.15396399  0.27142302    -0.28400
C281        C  0.17728073  0.19648295  0.26731345    -0.04500
C282        C  0.16372032  0.20387663  0.24441388     0.07700
C283        C  0.15384524  0.16385096  0.23535064     0.01500
H284        H  0.18643051  0.22029460  0.28027866     0.09100
H285        H  0.14158592  0.15668379  0.21788629     0.08200
N286        N  0.19191337  0.08322465  0.33245023    -0.35600
N287        N  0.18736111  0.04105095  0.33162145    -0.27800
C288        C  0.19165989  0.02491814  0.35344460    -0.03100
C289        C  0.19927554  0.05857172  0.36863057     0.05600
C290        C  0.19930604  0.09508291  0.35488526     0.03700
H291        H  0.18982130  0.99120545  0.35783227     0.08800
H292        H  0.20453262  0.12773340  0.36068076     0.07600
N293        N  0.21603079  0.12919343  0.65359908    -0.26800
N294        N  0.19953368  0.10731699  0.67152636    -0.34700
C295        C  0.18397314  0.13496108  0.68775689     0.01500
C296        C  0.19130561  0.17616247  0.67967397     0.07600
C297        C  0.21168444  0.17135829  0.65799798    -0.05500
H298        H  0.16860979  0.12570928  0.70422181     0.08200
H299        H  0.22203499  0.19661355  0.64613799     0.09400
Cu300      Cu  0.19956711  0.04097760  0.67318322     0.44200
Cu301      Cu  0.24175147  0.10074902  0.62352781     0.42000
Cu302      Cu  0.24998776  0.98487667  0.62408554     0.43900
N303        N  0.20537576  0.97487697  0.67124878    -0.34200
N304        N  0.22471695  0.95437088  0.65361032    -0.28400
C305        C  0.22163181  0.91186964  0.65735682    -0.04500
C306        C  0.19911416  0.90544073  0.67829907     0.07700
C307        C  0.18937267  0.94601757  0.68665238     0.01500
H308        H  0.23349443  0.88751206  0.64531796     0.09100
H309        H  0.17109199  0.95401695  0.70247898     0.08200
N310        N  0.26222586  0.02208650  0.59457747    -0.35600
N311        N  0.25898350  0.06440503  0.59435015    -0.27800
C312        C  0.26227383  0.07830870  0.57201415    -0.03100
C313        C  0.26789712  0.04307655  0.55762372     0.05600
C314        C  0.26764534  0.00795662  0.57238818     0.03700
H315        H  0.25743530  0.11120980  0.56653020     0.08800
H316        H  0.26780308  0.97454471  0.56726356     0.07600
O317        O  0.12112023  0.32849571  0.74007838    -0.72500
O318        O  0.15518099  0.21629708  0.70981036    -0.73400
O319        O  0.19140631  0.26862739  0.74555730    -0.62100
O320        O  0.08445773  0.27550796  0.70472672    -0.70500
O321        O  0.12260708  0.31112401  0.67749427    -0.70000
O322        O  0.23109220  0.30347688  0.71865376    -0.61300
O323        O  0.19339267  0.25189718  0.68262597    -0.73800
O324        O  0.16008599  0.36325281  0.71286485    -0.72600
Cu325      Cu  0.13670050  0.27102635  0.72599550     1.04600
Cu326      Cu  0.17826847  0.30869416  0.69698510     1.04300
C327        C  0.13496772  0.36356277  0.73099442     0.93700
C328        C  0.17943780  0.21662223  0.69130568     0.92900
C329        C  0.22820736  0.28444249  0.73853032     0.85000
C330        C  0.08634281  0.29446217  0.68487058     0.91300
O331        O  0.14793674  0.39245179  0.20869693    -0.72500
O332        O  0.17288898  0.27982759  0.24143312    -0.73400
O333        O  0.21552185  0.32929115  0.20577367    -0.62100
O334        O  0.10667846  0.34385837  0.24476323    -0.70500
O335        O  0.06693201  0.30957259  0.21770860    -0.70000
O336        O  0.17704511  0.29540821  0.17806416    -0.61300
O337        O  0.13444358  0.24630481  0.21360782    -0.73800
O338        O  0.10903626  0.35759628  0.18154336    -0.72600
Cu339      Cu  0.16221283  0.33753303  0.22610487     1.04600
Cu340      Cu  0.12047008  0.30097496  0.19679722     1.04300
C341        C  0.12455777  0.39248587  0.18987659     0.93700
C342        C  0.15701672  0.24532354  0.23260845     0.92900
C343        C  0.21367303  0.31068612  0.18581481     0.85000
C344        C  0.06966212  0.32906886  0.23746579     0.91300
O345        O  0.60713628  0.30016327  0.18370906    -0.72500
O346        O  0.71517597  0.31638284  0.22335621    -0.73400
O347        O  0.64950695  0.25184296  0.21954254    -0.62100
O348        O  0.67217012  0.36463672  0.18785283    -0.70500
O349        O  0.63224346  0.39766588  0.21538308    -0.70000
O350        O  0.60978974  0.28531792  0.24698530    -0.61300
O351        O  0.67549993  0.34973565  0.25086604    -0.73800
O352        O  0.56660610  0.33316437  0.21099699    -0.72600
Cu353      Cu  0.66245169  0.30705364  0.20268930     1.04600
Cu354      Cu  0.61952432  0.34257441  0.23201615     1.04300
C355        C  0.56985851  0.31459516  0.19100365     0.93700
C356        C  0.71266824  0.33561452  0.24314408     0.92900
C357        C  0.62630015  0.25098096  0.23839436     0.85000
C358        C  0.65557510  0.39884398  0.19662109     0.91300
N359        N  0.68025731  0.48860532  0.15831033    -0.26800
N360        N  0.66346840  0.50912651  0.17663972    -0.34700
C361        C  0.65236103  0.48033996  0.19323745     0.01500
C362        C  0.66297751  0.43995474  0.18488607     0.07600
C363        C  0.68062166  0.44631278  0.16274402    -0.05500
H364        H  0.63766424  0.48824800  0.21008736     0.08200
H365        H  0.69208510  0.42202294  0.15055560     0.09400
Cu366      Cu  0.65738677  0.57519035  0.17820718     0.44200
Cu367      Cu  0.69988168  0.51834966  0.12768766     0.42000
Cu368      Cu  0.69238982  0.63310535  0.12554025     0.43900
N369        N  0.66052160  0.64135589  0.17574922    -0.34200
N370        N  0.67418661  0.66219754  0.15679899    -0.28400
C371        C  0.67394830  0.70449925  0.16126806    -0.04500
C372        C  0.65922710  0.71050503  0.18404608     0.07700
C373        C  0.65084136  0.66991962  0.19272812     0.01500
H374        H  0.68329450  0.72903695  0.14874577     0.09100
H375        H  0.63888096  0.66168920  0.21012185     0.08200
N376        N  0.71034545  0.59595080  0.09692856    -0.35600
N377        N  0.71344626  0.55369876  0.09795198    -0.27800
C378        C  0.72522998  0.53852071  0.07673671    -0.03100
C379        C  0.72983149  0.57293513  0.06177119     0.05600
C380        C  0.72009265  0.60892213  0.07494076     0.03700
H381        H  0.72945403  0.50493617  0.07250022     0.08800
H382        H  0.71961098  0.64187913  0.06900224     0.07600
N383        N  0.69108139  0.61934181  0.77572241    -0.26800
N384        N  0.67745647  0.59695547  0.75734769    -0.34700
C385        C  0.66698790  0.62412182  0.73979622     0.01500
C386        C  0.67491265  0.66545223  0.74753827     0.07600
C387        C  0.69003724  0.66126549  0.77036469    -0.05500
H388        H  0.65553040  0.61443109  0.72255241     0.08200
H389        H  0.69987168  0.68676402  0.78217975     0.09400
Cu390      Cu  0.67717506  0.53057921  0.75674260     0.44200
Cu391      Cu  0.71192474  0.59207375  0.80693339     0.42000
Cu392      Cu  0.72321758  0.47638696  0.80794884     0.43900
N393        N  0.68462457  0.46473161  0.75944218    -0.34200
N394        N  0.70222840  0.44486780  0.77778306    -0.28400
C395        C  0.70217382  0.40232312  0.77370826    -0.04500
C396        C  0.68342734  0.39526075  0.75182252     0.07700
C397        C  0.67272348  0.43545416  0.74329740     0.01500
H398        H  0.71405076  0.37834553  0.78595803     0.09100
H399        H  0.65717544  0.44292518  0.72662135     0.08200
N400        N  0.73700358  0.51565173  0.83648496    -0.35600
N401        N  0.73252308  0.55786167  0.83606598    -0.27800
C402        C  0.74150266  0.57369043  0.85753321    -0.03100
C403        C  0.75226452  0.53981291  0.87201273     0.05600
C404        C  0.74896499  0.50346205  0.85829317     0.03700
H405        H  0.73891901  0.60716127  0.86237432     0.08800
H406        H  0.75335810  0.47057259  0.86388783     0.07600
N407        N  0.60062790  0.98847477  0.27690752    -0.26800
N408        N  0.61669684  0.00942418  0.25855954    -0.34700
C409        C  0.62656328  0.98118964  0.24145340     0.01500
C410        C  0.61585483  0.94065092  0.24946148     0.07600
C411        C  0.59954140  0.94637317  0.27196970    -0.05500
H412        H  0.64041133  0.98959531  0.22448342     0.08200
H413        H  0.58835987  0.92175713  0.28402022     0.09400
Cu414      Cu  0.62264816  0.07535173  0.25743765     0.44200
Cu415      Cu  0.58186859  0.01774620  0.30794216     0.42000
Cu416      Cu  0.57880316  0.13318141  0.30817078     0.43900
N417        N  0.61753506  0.14130869  0.25930667    -0.34200
N418        N  0.60020238  0.16224549  0.27737757    -0.28400
C419        C  0.60030877  0.20444903  0.27258189    -0.04500
C420        C  0.61878319  0.21020664  0.25052787     0.07700
C421        C  0.62942752  0.16961131  0.24261313     0.01500
H422        H  0.58836815  0.22910875  0.28441411     0.09100
H423        H  0.64441601  0.16117154  0.22591527     0.08200
N424        N  0.56507981  0.09608050  0.33754331    -0.35600
N425        N  0.56656045  0.05368955  0.33735132    -0.27800
C426        C  0.55860598  0.03892484  0.35915632    -0.03100
C427        C  0.55171843  0.07370694  0.37364985     0.05600
C428        C  0.55609023  0.10950383  0.35955438     0.03700
H429        H  0.55894378  0.00544334  0.36414539     0.08800
H430        H  0.55410932  0.14272149  0.36494884     0.07600
N431        N  0.60928102  0.11856166  0.65999585    -0.26800
N432        N  0.62982226  0.09693811  0.67681092    -0.34700
C433        C  0.64455249  0.12481193  0.69314502     0.01500
C434        C  0.63254690  0.16578261  0.68619043     0.07600
C435        C  0.61024267  0.16059540  0.66514754    -0.05500
H436        H  0.66263514  0.11590623  0.70887046     0.08200
H437        H  0.59614551  0.18556064  0.65421691     0.09400
Cu438      Cu  0.63609027  0.03051087  0.67654985     0.44200
Cu439      Cu  0.58227446  0.09068926  0.63027043     0.42000
Cu440      Cu  0.58735437  0.97574497  0.62604582     0.43900
N441        N  0.63355653  0.96422054  0.67269239    -0.34200
N442        N  0.61505154  0.94446229  0.65457237    -0.28400
C443        C  0.61699396  0.90182601  0.65801794    -0.04500
C444        C  0.63782198  0.89441080  0.67928212     0.07700
C445        C  0.64797089  0.93458266  0.68810344     0.01500
H446        H  0.60376691  0.87808168  0.64603965     0.09100
H447        H  0.66371411  0.94180187  0.70475870     0.08200
N448        N  0.56476172  0.01463756  0.59912782    -0.35600
N449        N  0.56275461  0.05689622  0.60075556    -0.27800
C450        C  0.55050992  0.07319322  0.57984457    -0.03100
C451        C  0.54446166  0.03950245  0.56447632     0.05600
C452        C  0.55385138  0.00283836  0.57711595     0.03700
H453        H  0.54851915  0.10705872  0.57583907     0.08800
H454        H  0.55495463  0.97029132  0.57054597     0.07600
O455        O  0.69289110  0.30427343  0.68576580    -0.72500
O456        O  0.58430062  0.29066899  0.72517487    -0.73400
O457        O  0.65172999  0.35333483  0.72139176    -0.62100
O458        O  0.62596820  0.24130314  0.68972460    -0.70500
O459        O  0.66567306  0.20693723  0.71677398    -0.70000
O460        O  0.69030553  0.31933603  0.74902928    -0.61300
O461        O  0.62282740  0.25555952  0.75243092    -0.73800
O462        O  0.73301568  0.27065156  0.71294073    -0.72600
Cu463      Cu  0.63736447  0.29856666  0.70461464     1.04600
Cu464      Cu  0.67944663  0.26193020  0.73378903     1.04300
C465        C  0.73004799  0.28963457  0.69305072     0.93700
C466        C  0.58607809  0.27078668  0.74476897     0.92900
C467        C  0.67486867  0.35401462  0.74022973     0.85000
C468        C  0.64182602  0.20652340  0.69817225     0.91300
O469        O  0.60095927  0.84859975  0.18358965    -0.72500
O470        O  0.71178003  0.83620299  0.22118940    -0.73400
O471        O  0.66761006  0.78586930  0.18683503    -0.62100
O472        O  0.64450477  0.89888902  0.21803395    -0.70500
O473        O  0.60684248  0.86548209  0.24627462    -0.70000
O474        O  0.63064034  0.75251639  0.21534976    -0.61300
O475        O  0.67448934  0.80314103  0.24969648    -0.73800
O476        O  0.56282279  0.81492603  0.21156575    -0.72600
Cu477      Cu  0.65755207  0.84356350  0.20145361     1.04600
Cu478      Cu  0.61727850  0.80788591  0.23173361     1.04300
C479        C  0.56461958  0.83299499  0.19139909     0.93700
C480        C  0.71074272  0.81814930  0.24133160     0.92900
C481        C  0.65237176  0.75150703  0.19604211     0.85000
C482        C  0.62248294  0.89982493  0.23725989     0.91300
O483        O  0.66778316  0.85177082  0.70986781    -0.72500
O484        O  0.68550241  0.74010996  0.74300876    -0.73400
O485        O  0.73303958  0.78625616  0.70788034    -0.62100
O486        O  0.62069595  0.80530322  0.74443910    -0.70500
O487        O  0.58289125  0.77088041  0.71665597    -0.70000
O488        O  0.69483089  0.75274547  0.67993329    -0.61300
O489        O  0.64832818  0.70588075  0.71493716    -0.73800
O490        O  0.62949968  0.81860194  0.68183871    -0.72600
Cu491      Cu  0.67819107  0.79698784  0.72723883     1.04600
Cu492      Cu  0.63754906  0.76087819  0.69731922     1.04300
C493        C  0.64550238  0.85293220  0.69077928     0.93700
C494        C  0.66938401  0.70560030  0.73446386     0.92900
C495        C  0.73159975  0.76669629  0.68813236     0.85000
C496        C  0.58414989  0.79060410  0.73632617     0.91300
C497        C  0.53426091  0.05233315  0.49348405     0.17500
C498        C  0.53251419  0.01665792  0.47852799    -0.11600
C499        C  0.53414466  0.02237198  0.45414674    -0.12400
C500        C  0.53755042  0.06370786  0.44465685     0.19100
C501        C  0.53893551  0.09939729  0.45960975    -0.14500
C502        C  0.53729576  0.09368364  0.48398905    -0.12800
C503        C  0.54094183  0.06931740  0.41962838     0.00000
C504        C  0.54512566  0.07247424  0.39862815    -0.32800
C505        C  0.53483218  0.04650082  0.51855278     0.01400
C506        C  0.53774057  0.04264318  0.53957083    -0.34400
H507        H  0.53043184  0.98458035  0.48569879     0.12500
H508        H  0.53323535  0.99452409  0.44270017     0.12300
H509        H  0.54174849  0.13142998  0.45245097     0.12200
H510        H  0.53892964  0.12148607  0.49544480     0.11200
C511        C  0.76147891  0.54832476  0.94314532     0.17500
C512        C  0.73629497  0.51947399  0.95655214    -0.11600
C513        C  0.73242698  0.52524033  0.98082872    -0.12400
C514        C  0.75364325  0.55984784  0.99177368     0.19100
C515        C  0.77957089  0.58825117  0.97846133    -0.14500
C516        C  0.78344428  0.58247896  0.95414482    -0.12800
C517        C  0.74747738  0.56677708  0.01651880     0.00000
C518        C  0.74020732  0.57091419  0.03720972    -0.32800
C519        C  0.76220894  0.54430130  0.91798771     0.01400
C520        C  0.75936238  0.54171763  0.89691681    -0.34400
H521        H  0.71901660  0.49315575  0.94819354     0.12500
H522        H  0.71224156  0.50310506  0.99101561     0.12300
H523        H  0.79604427  0.61508076  0.98678029     0.12200
H524        H  0.80283072  0.60511918  0.94386740     0.11200
C525        C  0.22471231  0.04994315  0.43898662     0.17500
C526        C  0.21113767  0.08257798  0.45435621    -0.11600
C527        C  0.22177298  0.08016537  0.47826389    -0.12400
C528        C  0.24604542  0.04517621  0.48692508     0.19100
C529        C  0.25932244  0.01233127  0.47160081    -0.14500
C530        C  0.24867774  0.01474675  0.44766797    -0.12800
C531        C  0.25681201  0.04300547  0.51156451     0.00000
C532        C  0.26362271  0.04248830  0.53246137    -0.32800
C533        C  0.21475586  0.05302841  0.41427800     0.01400
C534        C  0.20724841  0.05579638  0.39349884    -0.34400
H535        H  0.19260324  0.10988828  0.44784881     0.12500
H536        H  0.21116236  0.10566906  0.48999440     0.12300
H537        H  0.27791058  0.98506674  0.47812072     0.12200
H538        H  0.25932876  0.98929214  0.43591814     0.11200
C539        C  0.90473623  0.44839175  0.44317755     0.17500
C540        C  0.89142945  0.48358127  0.45687956    -0.11600
C541        C  0.88970284  0.47983604  0.48143457    -0.12400
C542        C  0.90122260  0.44094186  0.49222126     0.19100
C543        C  0.91527220  0.40618180  0.47849404    -0.14500
C544        C  0.91699825  0.40990833  0.45406584    -0.12800
C545        C  0.89781629  0.43551017  0.51725491     0.00000
C546        C  0.89629779  0.42583488  0.53774618    -0.32800
C547        C  0.90402862  0.45035317  0.41792378     0.01400
C548        C  0.90298253  0.44650010  0.39684885    -0.34400
H549        H  0.88183043  0.51345567  0.44861478     0.12500
H550        H  0.87885361  0.50696403  0.49193748     0.12300
H551        H  0.92426771  0.37603345  0.48665922     0.12200
H552        H  0.92723016  0.38247331  0.44361843     0.11200
C553        C  0.03527553  0.55194463  0.93148521     0.17500
C554        C  0.07517823  0.55741656  0.94386157    -0.11600
C555        C  0.07486922  0.55964253  0.96843092    -0.12400
C556        C  0.03461188  0.55640861  0.98080217     0.19100
C557        C  0.99462475  0.55101656  0.96844143    -0.14500
C558        C  0.99493646  0.54878920  0.94382139    -0.12800
C559        C  0.03478108  0.55833453  0.00614282     0.00000
C560        C  0.03725715  0.55981694  0.02732261    -0.32800
C561        C  0.03601325  0.54965010  0.90617113     0.01400
C562        C  0.03866054  0.54812941  0.88500659    -0.34400
H563        H  0.10658638  0.55992362  0.93450931     0.12500
H564        H  0.10595570  0.56379323  0.97777266     0.12300
H565        H  0.96325992  0.54845889  0.97782267     0.12200
H566        H  0.96389761  0.54458509  0.93444562     0.11200
C567        C  0.39333273  0.17549730  0.98711153     0.17500
C568        C  0.36399023  0.19805420  0.97251433    -0.11600
C569        C  0.36198388  0.18857695  0.94854585    -0.12400
C570        C  0.38926972  0.15645030  0.93908264     0.19100
C571        C  0.41796608  0.13320362  0.95374544    -0.14500
C572        C  0.41997144  0.14270262  0.97777877    -0.12800
C573        C  0.39008998  0.15014607  0.91408088     0.00000
C574        C  0.39113083  0.15055134  0.89292550    -0.32800
C575        C  0.39712195  0.18743860  0.01141069     0.01400
C576        C  0.39905493  0.20011194  0.03137634    -0.34400
H577        H  0.34333543  0.22354171  0.97957556     0.12500
H578        H  0.33997288  0.20695656  0.93730317     0.12300
H579        H  0.43943885  0.10850914  0.94653051     0.12200
H580        H  0.44281336  0.12515534  0.98894738     0.11200
C581        C  0.90698641  0.66230689  0.48546964     0.17500
C582        C  0.91695995  0.62998143  0.46914608    -0.11600
C583        C  0.91632848  0.63921582  0.44501697    -0.12400
C584        C  0.90576811  0.68075377  0.43731205     0.19100
C585        C  0.89559175  0.71279121  0.45368145    -0.14500
C586        C  0.89621110  0.70361377  0.47766777    -0.12800
C587        C  0.90556602  0.69130727  0.41272701     0.00000
C588        C  0.90445229  0.70407006  0.39275242    -0.32800
C589        C  0.90882712  0.65455571  0.51033857     0.01400
C590        C  0.91013845  0.65579130  0.53148387    -0.34400
H591        H  0.92546075  0.59792454  0.47504050     0.12500
H592        H  0.92424531  0.61423591  0.43245780     0.12300
H593        H  0.88741291  0.74500098  0.44789506     0.12200
H594        H  0.88862415  0.72882347  0.49015712     0.11200
C595        C  0.40105269  0.93232668  0.93002358     0.17500
C596        C  0.41381610  0.96827593  0.94316395    -0.11600
C597        C  0.41515907  0.96583635  0.96775024    -0.12400
C598        C  0.40378890  0.92739776  0.97906363     0.19100
C599        C  0.39091376  0.89167040  0.96586133    -0.14500
C600        C  0.38954871  0.89410422  0.94141072    -0.12800
C601        C  0.40507590  0.92388932  0.00418916     0.00000
C602        C  0.40430105  0.91646759  0.02493496    -0.32800
C603        C  0.40075754  0.93323930  0.90482840     0.01400
C604        C  0.40017027  0.92685906  0.88398490    -0.34400
H605        H  0.42293251  0.99795689  0.93444147     0.12500
H606        H  0.42512226  0.99360514  0.97786264     0.12300
H607        H  0.38205515  0.86180839  0.97448909     0.12200
H608        H  0.37982858  0.86614593  0.93137354     0.11200
loop_ 
_geom_bond_atom_site_label_1 
_geom_bond_atom_site_label_2 
_geom_bond_distance 
_geom_bond_site_symmetry_2 
_ccdc_geom_bond_type 
O1           Cu9   1.989       .  S
O1           C11   1.275       .  A
O2           Cu9   1.982       .  S
O2           C12   1.274       .  A
O3           Cu9   2.009       .  S
O3           C13   1.278       .  A
O4           Cu9   2.007       .  S
O4           C14   1.278       .  A
O5          Cu10   2.012       .  S
O5           C14   1.277       .  A
O6          Cu10   2.007       .  S
O6           C13   1.277       .  A
O7          Cu10   2.012       .  S
O7           C12   1.279       .  A
O8          Cu10   2.008       .  S
O8           C11   1.277       .  A
Cu9         Cu10   2.378       .  S
C11          C28   1.460       .  S
C12          C66   1.460       .  S
C13         C186   1.467       .  S
C14         C272   1.468       .  S
N15          N16   1.321       .  A
N15          C19   1.342       .  A
N15         Cu23   2.064       .  S
N16          C17   1.343       .  A
N16         Cu22   2.052       .  S
C17          C18   1.379       .  A
C17          H20   1.082       .  S
C18         C479   1.460       .  S
C18          C19   1.382       .  A
C19          H21   1.082       .  S
Cu22         N25   2.052       .  S
Cu23         N33   2.065       .  S
Cu24         N26   2.066       .  S
Cu24         N32   2.066       .  S
N25          N26   1.321       .  A
N25          C29   1.339       .  A
N26          C27   1.345       .  A
C27          C28   1.382       .  A
C27          H30   1.082       .  S
C28          C29   1.378       .  A
C29          H31   1.082       .  S
N32          N33   1.323       .  A
N32          C36   1.343       .  A
N33          C34   1.344       .  A
C34          C35   1.377       .  A
C34          H37   1.081       .  S
C35          C36   1.377       .  A
C35         C602   1.430       .  S
C36          H38   1.081       .  S
N39          N40   1.321       .  A
N39          C43   1.341       .  A
N39         Cu47   2.060       .  S
N40          C41   1.343       .  A
N40         Cu46   2.055       .  S
C41          C42   1.379       .  A
C41          H44   1.083       .  S
C42         C123   1.459       .  S
C42          C43   1.380       .  A
C43          H45   1.082       .  S
Cu46         N49   2.056       .  S
Cu47         N57   2.061       .  S
Cu48         N50   2.064       .  S
Cu48         N56   2.064       .  S
N49          N50   1.322       .  A
N49          C53   1.342       .  A
N50          C51   1.343       .  A
C51          C52   1.381       .  A
C51          H54   1.082       .  S
C52         C496   1.460       .  S
C52          C53   1.379       .  A
C53          H55   1.082       .  S
N56          N57   1.322       .  A
N56          C60   1.344       .  A
N57          C58   1.343       .  A
C58          C59   1.378       .  A
C58          H61   1.081       .  S
C59          C60   1.378       .  A
C59         C604   1.429       .  S
C60          H62   1.081       .  S
N63          N64   1.321       .  A
N63          C67   1.342   1_655  A
N63         Cu71   2.067       .  S
N64          C65   1.343       .  A
N64         Cu70   2.050       .  S
C65          C66   1.378   1_655  A
C65          H68   1.082       .  S
C66          C67   1.382       .  A
C67          H69   1.082       .  S
Cu70         N73   2.051       .  S
Cu71         N81   2.067       .  S
Cu72         N74   2.069       .  S
Cu72         N80   2.069       .  S
N73          N74   1.322       .  A
N73          C77   1.339       .  A
N74          C75   1.345       .  A
C75          C76   1.382       .  A
C75          H78   1.082       .  S
C76         C480   1.460       .  S
C76          C77   1.378       .  A
C77          H79   1.082       .  S
N80          N81   1.323       .  A
N80          C84   1.344       .  A
N81          C82   1.345       .  A
C82          C83   1.378       .  A
C82          H85   1.081       .  S
C83          C84   1.378       .  A
C83         C588   1.433       .  S
C84          H86   1.081       .  S
N87          N88   1.321       .  A
N87          C91   1.343   1_655  A
N87         Cu95   2.062       .  S
N88          C89   1.342   1_655  A
N88         Cu94   2.057       .  S
C89          C90   1.380       .  A
C89          H92   1.082   1_455  S
C90         C124   1.461       .  S
C90          C91   1.381       .  A
C91          H93   1.082       .  S
Cu94         N97   2.058       .  S
Cu95        N105   2.063       .  S
Cu96         N98   2.075       .  S
Cu96        N104   2.075       .  S
N97          N98   1.322       .  A
N97         C101   1.342       .  A
N98          C99   1.345       .  A
C99         C100   1.384       .  A
C99         H102   1.082       .  S
C100        C495   1.464       .  S
C100        C101   1.379       .  A
C101        H103   1.082       .  S
N104        N105   1.323       .  A
N104        C108   1.345       .  A
N105        C106   1.343       .  A
C106        C107   1.378       .  A
C106        H109   1.081       .  S
C107        C108   1.380       .  A
C107        C590   1.432       .  S
C108        H110   1.081       .  S
O111       Cu119   2.012       .  S
O111        C121   1.278       .  A
O112       Cu119   2.011       .  S
O112        C122   1.278       .  A
O113       Cu119   2.004       .  S
O113        C123   1.277       .  A
O114       Cu119   2.001       .  S
O114        C124   1.277       .  A
O115       Cu120   1.995       .  S
O115        C124   1.276       .  A
O116       Cu120   1.989       .  S
O116        C123   1.275       .  A
O117       Cu120   2.007       .  S
O117        C122   1.277       .  A
O118       Cu120   2.004       .  S
O118        C121   1.277       .  A
Cu119      Cu120   2.378       .  S
C121        C200   1.468       .  S
C122        C306   1.468       .  S
N125        N126   1.322       .  A
N125        C129   1.345       .  A
N125       Cu133   2.075       .  S
N126        C127   1.342       .  A
N126       Cu132   2.053       .  S
C127        C128   1.378       .  A
C127        H130   1.082       .  S
C128        C355   1.463       .  S
C128        C129   1.384       .  A
C129        H131   1.082       .  S
Cu132       N135   2.054       .  S
Cu133       N143   2.075       .  S
Cu134       N136   2.064       .  S
Cu134       N142   2.065       .  S
N135        N136   1.320       .  A
N135        C139   1.340       .  A
N136        C137   1.346       .  A
C137        C138   1.382       .  A
C137        H140   1.082       .  S
C138        C343   1.462       .  S
C138        C139   1.379       .  A
C139        H141   1.082       .  S
N142        N143   1.324       .  A
N142        C146   1.343       .  A
N143        C144   1.346       .  A
C144        C145   1.379       .  A
C144        H147   1.081       .  S
C145        C146   1.376       .  A
C145        C576   1.432       .  S
C146        H148   1.081       .  S
N149        N150   1.321       .  A
N149        C153   1.342       .  A
N149       Cu157   2.066       .  S
N150        C151   1.344       .  A
N150       Cu156   2.057       .  S
C151        C152   1.380       .  A
C151        H154   1.082       .  S
C152        C329   1.462       .  S
C152        C153   1.382       .  A
C153        H155   1.082       .  S
Cu156       N159   2.058       .  S
Cu157       N167   2.066       .  S
Cu158       N160   2.070       .  S
Cu158       N166   2.070       .  S
N159        N160   1.322       .  A
N159        C163   1.340       .  A
N160        C161   1.346       .  A
C161        C162   1.383       .  A
C161        H164   1.082       .  S
C162        C466   1.462       .  S
C162        C163   1.379       .  A
C163        H165   1.082       .  S
N166        N167   1.323       .  A
N166        C170   1.344       .  A
N167        C168   1.344       .  A
C168        C169   1.378       .  A
C168        H171   1.081       .  S
C169        C170   1.379       .  A
C169        C574   1.432       .  S
C170        H172   1.081       .  S
N173        N174   1.322       .  A
N173        C177   1.345       .  A
N173       Cu181   2.079       .  S
N174        C175   1.345       .  A
N174       Cu180   2.067       .  S
C175        C176   1.381       .  A
C175        H178   1.082       .  S
C176        C341   1.469       .  S
C176        C177   1.384       .  A
C177        H179   1.082       .  S
Cu180       N183   2.067       .  S
Cu181       N191   2.079       .  S
Cu182       N184   2.076       .  S
Cu182       N190   2.076       .  S
N183        N184   1.322       .  A
N183        C187   1.344       .  A
N184        C185   1.345       .  A
C185        C186   1.383       .  A
C185        H188   1.082       .  S
C186        C187   1.381       .  A
C187        H189   1.082       .  S
N190        N191   1.323       .  A
N190        C194   1.346       .  A
N191        C192   1.346       .  A
C192        C193   1.380       .  A
C192        H195   1.082       .  S
C193        C194   1.380       .  A
C193        C560   1.439       .  S
C194        H196   1.082       .  S
N197        N198   1.322       .  A
N197        C201   1.343       .  A
N197       Cu205   2.070       .  S
N198        C199   1.347       .  A
N198       Cu204   2.076       .  S
C199        C200   1.384       .  A
C199        H202   1.082       .  S
C200        C201   1.381       .  A
C201        H203   1.082       .  S
Cu204       N207   2.077       .  S
Cu205       N215   2.071       .  S
Cu206       N208   2.072       .  S
Cu206       N214   2.072       .  S
N207        N208   1.323       .  A
N207        C211   1.344       .  A
N208        C209   1.346       .  A
C209        C210   1.382       .  A
C209        H212   1.082       .  S
C210        C327   1.468       .  S
C210        C211   1.383       .  A
C211        H213   1.082       .  S
N214        N215   1.322       .  A
N214        C218   1.346       .  A
N215        C216   1.345       .  A
C216        C217   1.379       .  A
C216        H219   1.082       .  S
C217        C218   1.380       .  A
C217        C562   1.437       .  S
C218        H220   1.082       .  S
N221        N222   1.321       .  A
N221        C225   1.347       .  A
N221       Cu229   2.074       .  S
N222        C223   1.339       .  A
N222       Cu228   2.048       .  S
C223        C224   1.377       .  A
C223        H226   1.082       .  S
C224        C356   1.462       .  S
C224        C225   1.384       .  A
C225        H227   1.082       .  S
Cu228       N231   2.048       .  S
Cu229       N239   2.074       .  S
Cu230       N232   2.074       .  S
Cu230       N238   2.074       .  S
N231        N232   1.321       .  A
N231        C235   1.342       .  A
N232        C233   1.344   1_655  A
C233        C234   1.384       .  A
C233        H236   1.082       .  S
C234        C344   1.462       .  S
C234        C235   1.378   1_455  A
C235        H237   1.082       .  S
N238        N239   1.324       .  A
N238        C242   1.345       .  A
N239        C240   1.345       .  A
C240        C241   1.379       .  A
C240        H243   1.081       .  S
C241        C242   1.379       .  A
C241        C548   1.434       .  S
C242        H244   1.081       .  S
N245        N246   1.322       .  A
N245        C249   1.343       .  A
N245       Cu253   2.075       .  S
N246        C247   1.343       .  A
N246       Cu252   2.054       .  S
C247        C248   1.379       .  A
C247        H250   1.083       .  S
C248        C465   1.463       .  S
C248        C249   1.383       .  A
C249        H251   1.082       .  S
Cu252       N255   2.054       .  S
Cu253       N263   2.076       .  S
Cu254       N256   2.063       .  S
Cu254       N262   2.064       .  S
N255        N256   1.321       .  A
N255        C259   1.339   1_655  A
N256        C257   1.345   1_655  A
C257        C258   1.382       .  A
C257        H260   1.082       .  S
C258        C330   1.459       .  S
C258        C259   1.379       .  A
C259        H261   1.082   1_455  S
N262        N263   1.323       .  A
N262        C266   1.343       .  A
N263        C264   1.346       .  A
C264        C265   1.380       .  A
C264        H267   1.081       .  S
C265        C266   1.377       .  A
C265        C546   1.433       .  S
C266        H268   1.081       .  S
N269        N270   1.322   1_565  A
N269        C273   1.343       .  A
N269       Cu277   2.067   1_565  S
N270        C271   1.347   1_545  A
N270       Cu276   2.077       .  S
C271        C272   1.385       .  A
C271        H274   1.082       .  S
C272        C273   1.381       .  A
C273        H275   1.082       .  S
Cu276       N279   2.078       .  S
Cu277       N287   2.067       .  S
Cu278       N280   2.078       .  S
Cu278       N286   2.078       .  S
N279        N280   1.323       .  A
N279        C283   1.344       .  A
N280        C281   1.347       .  A
C281        C282   1.383       .  A
C281        H284   1.082       .  S
C282        C342   1.470       .  S
C282        C283   1.383       .  A
C283        H285   1.082       .  S
N286        N287   1.323       .  A
N286        C290   1.346       .  A
N287        C288   1.345       .  A
C288        C289   1.378       .  A
C288        H291   1.082   1_545  S
C289        C290   1.381       .  A
C289        C534   1.436       .  S
C290        H292   1.082       .  S
N293        N294   1.322       .  A
N293        C297   1.344       .  A
N293       Cu301   2.073       .  S
N294        C295   1.345       .  A
N294       Cu300   2.070       .  S
C295        C296   1.382       .  A
C295        H298   1.082       .  S
C296        C328   1.467       .  S
C296        C297   1.383       .  A
C297        H299   1.082       .  S
Cu300       N303   2.071   1_545  S
Cu301       N311   2.073       .  S
Cu302       N304   2.072       .  S
Cu302       N310   2.072   1_565  S
N303        N304   1.322       .  A
N303        C307   1.344       .  A
N304        C305   1.345       .  A
C305        C306   1.383       .  A
C305        H308   1.082       .  S
C306        C307   1.382       .  A
C307        H309   1.082       .  S
N310        N311   1.323       .  A
N310        C314   1.345       .  A
N311        C312   1.345       .  A
C312        C313   1.380       .  A
C312        H315   1.082       .  S
C313        C314   1.379       .  A
C313        C532   1.436       .  S
C314        H316   1.082   1_545  S
O317       Cu325   2.017       .  S
O317        C327   1.279       .  A
O318       Cu325   2.015       .  S
O318        C328   1.279       .  A
O319       Cu325   1.986       .  S
O319        C329   1.274       .  A
O320       Cu325   1.986       .  S
O320        C330   1.275       .  A
O321       Cu326   2.007       .  S
O321        C330   1.277       .  A
O322       Cu326   2.015       .  S
O322        C329   1.279       .  A
O323       Cu326   2.001       .  S
O323        C328   1.276       .  A
O324       Cu326   2.001       .  S
O324        C327   1.276       .  A
Cu325      Cu326   2.378       .  S
O331       Cu339   2.023       .  S
O331        C341   1.280       .  A
O332       Cu339   2.024       .  S
O332        C342   1.280       .  A
O333       Cu339   1.989       .  S
O333        C343   1.275       .  A
O334       Cu339   1.985       .  S
O334        C344   1.274       .  A
O335       Cu340   2.016       .  S
O335        C344   1.279       .  A
O336       Cu340   2.011       .  S
O336        C343   1.278       .  A
O337       Cu340   1.998       .  S
O337        C342   1.276       .  A
O338       Cu340   1.996       .  S
O338        C341   1.275       .  A
Cu339      Cu340   2.377       .  S
O345       Cu353   1.993       .  S
O345        C355   1.275       .  A
O346       Cu353   1.994       .  S
O346        C356   1.276       .  A
O347       Cu353   2.008       .  S
O347        C357   1.278       .  A
O348       Cu353   2.005       .  S
O348        C358   1.278       .  A
O349       Cu354   1.998       .  S
O349        C358   1.276       .  A
O350       Cu354   1.999       .  S
O350        C357   1.276       .  A
O351       Cu354   2.007       .  S
O351        C356   1.277       .  A
O352       Cu354   2.011       .  S
O352        C355   1.279       .  A
Cu353      Cu354   2.379       .  S
C357        C420   1.464       .  S
C358        C362   1.462       .  S
N359        N360   1.322       .  A
N359        C363   1.342       .  A
N359       Cu367   2.058       .  S
N360        C361   1.344       .  A
N360       Cu366   2.069       .  S
C361        C362   1.382       .  A
C361        H364   1.082       .  S
C362        C363   1.379       .  A
C363        H365   1.082       .  S
Cu366       N369   2.070       .  S
Cu367       N377   2.058       .  S
Cu368       N370   2.067       .  S
Cu368       N376   2.067       .  S
N369        N370   1.323       .  A
N369        C373   1.344       .  A
N370        C371   1.343       .  A
C371        C372   1.380       .  A
C371        H374   1.082       .  S
C372        C481   1.463       .  S
C372        C373   1.381       .  A
C373        H375   1.082       .  S
N376        N377   1.322       .  A
N376        C380   1.345       .  A
N377        C378   1.342       .  A
C378        C379   1.376       .  A
C378        H381   1.082       .  S
C379        C380   1.380       .  A
C379        C518   1.431       .  S
C380        H382   1.082       .  S
N383        N384   1.322       .  A
N383        C387   1.342       .  A
N383       Cu391   2.064       .  S
N384        C385   1.346       .  A
N384       Cu390   2.070       .  S
C385        C386   1.383       .  A
C385        H388   1.082       .  S
C386        C494   1.465       .  S
C386        C387   1.381       .  A
C387        H389   1.082       .  S
Cu390       N393   2.071       .  S
Cu391       N401   2.064       .  S
Cu392       N394   2.075       .  S
Cu392       N400   2.074       .  S
N393        N394   1.323       .  A
N393        C397   1.343       .  A
N394        C395   1.346       .  A
C395        C396   1.383       .  A
C395        H398   1.082       .  S
C396        C467   1.468       .  S
C396        C397   1.381       .  A
C397        H399   1.082       .  S
N400        N401   1.323       .  A
N400        C404   1.345       .  A
N401        C402   1.344       .  A
C402        C403   1.377       .  A
C402        H405   1.082       .  S
C403        C404   1.379       .  A
C403        C520   1.433       .  S
C404        H406   1.082       .  S
N407        N408   1.321   1_565  A
N407        C411   1.343       .  A
N407       Cu415   2.063   1_565  S
N408        C409   1.344   1_545  A
N408       Cu414   2.064       .  S
C409        C410   1.381       .  A
C409        H412   1.082       .  S
C410        C482   1.463       .  S
C410        C411   1.381       .  A
C411        H413   1.082       .  S
Cu414       N417   2.065       .  S
Cu415       N425   2.063       .  S
Cu416       N418   2.072       .  S
Cu416       N424   2.072       .  S
N417        N418   1.323       .  A
N417        C421   1.344       .  A
N418        C419   1.344       .  A
C419        C420   1.382       .  A
C419        H422   1.082       .  S
C420        C421   1.380       .  A
C421        H423   1.082       .  S
N424        N425   1.322       .  A
N424        C428   1.346       .  A
N425        C426   1.343       .  A
C426        C427   1.377       .  A
C426        H429   1.082       .  S
C427        C428   1.380       .  A
C427        C504   1.434       .  S
C428        H430   1.082       .  S
N431        N432   1.322       .  A
N431        C435   1.343       .  A
N431       Cu439   2.067       .  S
N432        C433   1.347       .  A
N432       Cu438   2.079       .  S
C433        C434   1.385       .  A
C433        H436   1.082       .  S
C434        C468   1.468       .  S
C434        C435   1.381       .  A
C435        H437   1.082       .  S
Cu438       N441   2.080   1_545  S
Cu439       N449   2.066       .  S
Cu440       N442   2.067       .  S
Cu440       N448   2.067   1_565  S
N441        N442   1.323       .  A
N441        C445   1.345       .  A
N442        C443   1.345       .  A
C443        C444   1.381       .  A
C443        H446   1.082       .  S
C444        C493   1.467       .  S
C444        C445   1.383       .  A
C445        H447   1.082       .  S
N448        N449   1.322       .  A
N448        C452   1.345       .  A
N449        C450   1.344       .  A
C450        C451   1.378       .  A
C450        H453   1.082       .  S
C451        C452   1.379       .  A
C451        C506   1.433       .  S
C452        H454   1.082   1_545  S
O455       Cu463   1.989       .  S
O455        C465   1.274       .  A
O456       Cu463   1.990       .  S
O456        C466   1.276       .  A
O457       Cu463   2.003       .  S
O457        C467   1.277       .  A
O458       Cu463   2.006       .  S
O458        C468   1.278       .  A
O459       Cu464   2.012       .  S
O459        C468   1.277       .  A
O460       Cu464   2.015       .  S
O460        C467   1.278       .  A
O461       Cu464   2.012       .  S
O461        C466   1.278       .  A
O462       Cu464   2.015       .  S
O462        C465   1.279       .  A
Cu463      Cu464   2.377       .  S
O469       Cu477   1.986       .  S
O469        C479   1.274       .  A
O470       Cu477   1.991       .  S
O470        C480   1.276       .  A
O471       Cu477   2.004       .  S
O471        C481   1.277       .  A
O472       Cu477   2.004       .  S
O472        C482   1.277       .  A
O473       Cu478   2.001       .  S
O473        C482   1.277       .  A
O474       Cu478   2.001       .  S
O474        C481   1.276       .  A
O475       Cu478   2.004       .  S
O475        C480   1.277       .  A
O476       Cu478   2.010       .  S
O476        C479   1.278       .  A
Cu477      Cu478   2.379       .  S
O483       Cu491   1.997       .  S
O483        C493   1.276       .  A
O484       Cu491   1.999       .  S
O484        C494   1.276       .  A
O485       Cu491   2.007       .  S
O485        C495   1.278       .  A
O486       Cu491   2.000       .  S
O486        C496   1.276       .  A
O487       Cu492   1.998       .  S
O487        C496   1.276       .  A
O488       Cu492   1.998       .  S
O488        C495   1.276       .  A
O489       Cu492   2.012       .  S
O489        C494   1.278       .  A
O490       Cu492   2.018       .  S
O490        C493   1.279       .  A
Cu491      Cu492   2.378       .  S
C497        C498   1.401       .  A
C497        C502   1.401       .  A
C497        C505   1.436       .  S
C498        C499   1.398       .  A
C498        H507   1.082   1_545  S
C499        C500   1.401       .  A
C499        H508   1.085   1_545  S
C500        C501   1.401       .  A
C500        C503   1.437       .  S
C501        C502   1.398       .  A
C501        H509   1.082       .  S
C502        H510   1.085       .  S
C503        C504   1.204       .  T
C505        C506   1.204       .  T
C511        C512   1.401       .  A
C511        C516   1.401       .  A
C511        C519   1.435       .  S
C512        C513   1.396       .  A
C512        H521   1.081       .  S
C513        C514   1.400       .  A
C513        H522   1.086       .  S
C514        C515   1.401       .  A
C514        C517   1.435   1_556  S
C515        C516   1.398       .  A
C515        H523   1.081       .  S
C516        H524   1.086       .  S
C517        C518   1.203       .  T
C519        C520   1.203       .  T
C525        C526   1.401       .  A
C525        C530   1.402       .  A
C525        C533   1.439       .  S
C526        C527   1.398       .  A
C526        H535   1.082       .  S
C527        C528   1.401       .  A
C527        H536   1.085       .  S
C528        C529   1.402       .  A
C528        C531   1.439       .  S
C529        C530   1.399       .  A
C529        H537   1.082   1_545  S
C530        H538   1.085   1_545  S
C531        C532   1.205       .  T
C533        C534   1.205       .  T
C539        C540   1.403       .  A
C539        C544   1.399       .  A
C539        C547   1.437       .  S
C540        C541   1.401       .  A
C540        H549   1.082       .  S
C541        C542   1.402       .  A
C541        H550   1.085       .  S
C542        C543   1.400       .  A
C542        C545   1.436       .  S
C543        C544   1.394       .  A
C543        H551   1.082       .  S
C544        H552   1.085       .  S
C545        C546   1.204       .  T
C547        C548   1.204       .  T
C553        C554   1.400       .  A
C553        C558   1.402   1_455  A
C553        C561   1.441       .  S
C554        C555   1.398       .  A
C554        H563   1.085       .  S
C555        C556   1.401       .  A
C555        H564   1.082       .  S
C556        C557   1.402   1_455  A
C556        C559   1.441   1_556  S
C557        C558   1.401       .  A
C557        H565   1.085       .  S
C558        H566   1.082       .  S
C559        C560   1.207       .  T
C561        C562   1.206       .  T
C567        C568   1.400       .  A
C567        C572   1.401       .  A
C567        C575   1.435   1_556  S
C568        C569   1.395       .  A
C568        H577   1.084       .  S
C569        C570   1.400       .  A
C569        H578   1.083       .  S
C570        C571   1.401       .  A
C570        C573   1.435       .  S
C571        C572   1.399       .  A
C571        H579   1.084       .  S
C572        H580   1.083       .  S
C573        C574   1.203       .  T
C575        C576   1.203       .  T
C581        C582   1.402       .  A
C581        C586   1.400       .  A
C581        C589   1.435       .  S
C582        C583   1.401       .  A
C582        H591   1.084       .  S
C583        C584   1.403       .  A
C583        H592   1.082       .  S
C584        C585   1.398       .  A
C584        C587   1.435       .  S
C585        C586   1.393       .  A
C585        H593   1.085       .  S
C586        H594   1.083       .  S
C587        C588   1.203       .  T
C589        C590   1.203       .  T
C595        C596   1.401       .  A
C595        C600   1.399       .  A
C595        C603   1.432       .  S
C596        C597   1.400       .  A
C596        H605   1.085       .  S
C597        C598   1.402       .  A
C597        H606   1.082       .  S
C598        C599   1.398       .  A
C598        C601   1.433   1_556  S
C599        C600   1.392       .  A
C599        H607   1.085       .  S
C600        H608   1.082       .  S
C601        C602   1.202       .  T
C603        C604   1.201       .  T
