geometry optimzed in LAMMPS
_audit_creation_date              2020-12-01 
_audit_creation_method            'lammps2cif' 
_symmetry_space_group_name_H-M    'P1' 
_symmetry_Int_Tables_number       1 
_symmetry_cell_setting            triclinic 
loop_ 
_symmetry_equiv_pos_as_xyz 
  x,y,z 
_cell_length_a                    50.06611097 
_cell_length_b                    49.73555644932392 
_cell_length_c                    49.07494449411141 
_cell_angle_alpha                 90.23103221533884 
_cell_angle_beta                  89.92223652677269 
_cell_angle_gamma                 90.11680973664485 
loop_ 
_atom_site_label 
_atom_site_type_symbol 
_atom_site_fract_x 
_atom_site_fract_y 
_atom_site_fract_z 
_atom_site_charge 
O1          O  0.52611655  0.66005827  0.97421950    -0.74400
O2          O  0.47410676  0.71573359  0.96908275    -0.74500
O3          O  0.52875010  0.71388079  0.97093896    -0.74500
O4          O  0.47162054  0.66150836  0.97286324    -0.74600
O5          O  0.47077156  0.66485340  0.01810686    -0.74500
O6          O  0.52815748  0.71633467  0.01627471    -0.74500
O7          O  0.47343461  0.71949488  0.01434891    -0.74400
O8          O  0.52534567  0.66257395  0.01953563    -0.74500
Ni9        Ni  0.50012622  0.68772837  0.97020404     1.25400
Ni10       Ni  0.49924652  0.69097587  0.01868253     1.25400
C11         C  0.53506024  0.65271849  0.99745335     0.87800
C12         C  0.46488416  0.72662656  0.99078780     0.87700
C13         C  0.53874321  0.72268286  0.99338209     0.87700
C14         C  0.46175387  0.65448660  0.99594908     0.87900
C15         C  0.85743882  0.68372083  0.98924135    -0.02500
C16         C  0.71203941  0.82871177  0.99064237    -0.02500
O17         O  0.74145845  0.50114733  0.97465197    -0.74400
O18         O  0.68443526  0.45003594  0.97511752    -0.74500
O19         O  0.68785656  0.50443422  0.97477591    -0.74500
O20         O  0.73837185  0.44626663  0.97544366    -0.74600
O21         O  0.73859862  0.44770285  0.02083288    -0.74500
O22         O  0.68788015  0.50497810  0.02017298    -0.74500
O23         O  0.68449833  0.45063688  0.02050992    -0.74400
O24         O  0.74156068  0.50236962  0.02005716    -0.74500
Ni25       Ni  0.71313544  0.47539244  0.97337648     1.25400
Ni26       Ni  0.71320488  0.47636173  0.02199208     1.25400
C27         C  0.75002611  0.51116431  0.99709441     0.87800
C28         C  0.67481685  0.44204476  0.99787625     0.87700
C29         C  0.67964454  0.51438701  0.99745460     0.87700
C30         C  0.74651173  0.43714019  0.99840093     0.87900
C31         C  0.70316271  0.12506915  0.00654569    -0.02500
C32         C  0.85275890  0.26557191  0.01220796    -0.02500
O33         O  0.46736373  0.23890361  0.02353321    -0.74400
O34         O  0.52307990  0.29205839  0.02265703    -0.74500
O35         O  0.46918737  0.29277980  0.02444911    -0.74500
O36         O  0.52189151  0.23754928  0.02208807    -0.74600
O37         O  0.52188413  0.23890758  0.97665541    -0.74500
O38         O  0.46730609  0.29247289  0.97906445    -0.74500
O39         O  0.52122018  0.29309264  0.97731612    -0.74400
O40         O  0.46731251  0.23822138  0.97808924    -0.74500
Ni41       Ni  0.49548202  0.26518130  0.02479767     1.25400
Ni42       Ni  0.49438481  0.26557516  0.97615922     1.25400
C43         C  0.45758743  0.23046443  0.00091946     0.87800
C44         C  0.53097869  0.30176838  0.99982345     0.87700
C45         C  0.45938772  0.30158159  0.00215859     0.87700
C46         C  0.53135386  0.22992835  0.99907147     0.87900
C47         C  0.13955508  0.26663106  0.00184042    -0.02500
C48         C  0.28576735  0.12383961  0.99587965    -0.02500
C49         C  0.15066371  0.69061563  0.01473173    -0.02500
C50         C  0.29582963  0.83460847  0.99305492    -0.02500
O51         O  0.25573887  0.50342489  0.03437921    -0.74400
O52         O  0.30921419  0.44976749  0.03061947    -0.74500
O53         O  0.30957420  0.50422452  0.03111285    -0.74500
O54         O  0.25529368  0.44847046  0.03270272    -0.74600
O55         O  0.25432103  0.44921965  0.98731623    -0.74500
O56         O  0.30660377  0.50522339  0.98585528    -0.74500
O57         O  0.30797296  0.45088221  0.98523413    -0.74400
O58         O  0.25279507  0.50397867  0.98901954    -0.74500
Ni59       Ni  0.28242147  0.47644216  0.03384245     1.25400
Ni60       Ni  0.28023933  0.47734707  0.98526797     1.25400
C61         C  0.24613733  0.51322973  0.01248398     0.87800
C62         C  0.31762010  0.44156871  0.00746791     0.87700
C63         C  0.31701257  0.51391083  0.00801628     0.87700
C64         C  0.24669429  0.43898005  0.00991396     0.87900
O65         O  0.52604733  0.95826511  0.74876846    -0.74400
O66         O  0.47600865  0.95829349  0.69038091    -0.74500
O67         O  0.52958242  0.95585137  0.69423826    -0.74500
O68         O  0.47162862  0.96118900  0.74506863    -0.74600
O69         O  0.47272064  0.00589930  0.74231199    -0.74500
O70         O  0.53258113  0.00056958  0.69382313    -0.74500
O71         O  0.47901136  0.00291286  0.68765803    -0.74400
O72         O  0.52736718  0.00310359  0.74851425    -0.74500
Ni73       Ni  0.50066181  0.95685257  0.71986491     1.25400
Ni74       Ni  0.50296428  0.00476080  0.71817846     1.25400
C75         C  0.53602142  0.98045688  0.75726812     0.87800
C76         C  0.46975878  0.98042890  0.67885908     0.87700
C77         C  0.54065708  0.97746565  0.68563153     0.87700
C78         C  0.46179820  0.98427928  0.75106950     0.87900
C79         C  0.85499290  0.97312725  0.70727523    -0.02500
C80         C  0.71191545  0.98506529  0.85665641    -0.02500
O81         O  0.73601167  0.95144106  0.46830010    -0.74400
O82         O  0.68591094  0.95226365  0.52742666    -0.74500
O83         O  0.68237823  0.95201851  0.47239462    -0.74500
O84         O  0.74002009  0.95206964  0.52401405    -0.74600
O85         O  0.73991322  0.99690237  0.52348232    -0.74500
O86         O  0.68262107  0.99683351  0.47236620    -0.74500
O87         O  0.68626444  0.99707076  0.52743146    -0.74400
O88         O  0.73591923  0.99624066  0.46763763    -0.74500
Ni89       Ni  0.71117579  0.95034141  0.49807453     1.25400
Ni90       Ni  0.71133107  0.99833346  0.49775250     1.25400
C91         C  0.74316863  0.97365537  0.45730921     0.87800
C92         C  0.67767147  0.97473714  0.53710581     0.87700
C93         C  0.67321342  0.97446357  0.46369665     0.87700
C94         C  0.74870621  0.97469378  0.53303192     0.87900
C95         C  0.13935634  0.97492332  0.70548801    -0.02500
C96         C  0.28483965  0.98165550  0.85000121    -0.02500
O97         O  0.26658656  0.95498878  0.52949943    -0.74400
O98         O  0.31784675  0.95515688  0.47206245    -0.74500
O99         O  0.32034916  0.95582459  0.52670773    -0.74500
O100        O  0.26448529  0.95434168  0.47394945    -0.74600
O101        O  0.26307273  0.99913062  0.47413143    -0.74500
O102        O  0.32067976  0.00062126  0.52571125    -0.74500
O103        O  0.31673435  0.99994481  0.47087807    -0.74400
O104        O  0.26672706  0.99979315  0.53000296    -0.74500
Ni105      Ni  0.29219754  0.95353156  0.50063947     1.25400
Ni106      Ni  0.29162675  0.00152186  0.50024417     1.25400
C107        C  0.25887920  0.97730092  0.53993383     0.87800
C108        C  0.32566412  0.97747210  0.46189383     0.87700
C109        C  0.33025230  0.97835793  0.53439509     0.87700
C110        C  0.25552626  0.97642360  0.46427540     0.87900
C111        C  0.29058204  0.97698279  0.13941865    -0.02500
C112        C  0.15012462  0.97171136  0.28936737    -0.02500
C113        C  0.70999497  0.96996602  0.14019069    -0.02500
C114        C  0.85451142  0.97197940  0.28532478    -0.02500
O115        O  0.47287412  0.95195017  0.25257910    -0.74400
O116        O  0.52691407  0.95218391  0.30746054    -0.74500
O117        O  0.47308556  0.95188423  0.30720258    -0.74500
O118        O  0.52749398  0.95226670  0.25257704    -0.74600
O119        O  0.52819966  0.99717455  0.25381823    -0.74500
O120        O  0.47240205  0.99670441  0.30657310    -0.74500
O121        O  0.52620458  0.99700368  0.30828759    -0.74400
O122        O  0.47356767  0.99678130  0.25187931    -0.74500
Ni123      Ni  0.50012237  0.95045274  0.27978526     1.25400
Ni124      Ni  0.50007239  0.99851563  0.27999274     1.25400
C125        C  0.46346092  0.97433229  0.24410769     0.87800
C126        C  0.53524680  0.97462524  0.31717160     0.87700
C127        C  0.46372554  0.97429921  0.31581423     0.87700
C128        C  0.53771891  0.97478068  0.24546707     0.87900
O129        O  0.97971098  0.50084071  0.69676328    -0.74400
O130        O  0.97941127  0.44187595  0.74676833    -0.74500
O131        O  0.98145940  0.49712918  0.75128954    -0.74500
O132        O  0.97784700  0.44667250  0.69222116    -0.74600
O133        O  0.02233569  0.44528097  0.69126304    -0.74500
O134        O  0.02597171  0.49566620  0.75026742    -0.74500
O135        O  0.02388150  0.44057143  0.74585960    -0.74400
O136        O  0.02416575  0.49964450  0.69534738    -0.74500
Ni137      Ni  0.97804955  0.47165568  0.72202117     1.25400
Ni138      Ni  0.02567935  0.47023725  0.72077395     1.25400
C139        C  0.00192642  0.50984881  0.68753644     0.87800
C140        C  0.00143855  0.43058438  0.75347341     0.87700
C141        C  0.00425039  0.50594680  0.75927835     0.87700
C142        C  0.99962075  0.43764310  0.68201323     0.87900
C143        C  0.99634939  0.82885680  0.71892594    -0.02500
C144        C  0.01273716  0.68185863  0.86117773    -0.02500
O145        O  0.97541452  0.71149822  0.53361411    -0.74400
O146        O  0.97539390  0.66037860  0.47495789    -0.74500
O147        O  0.97567077  0.65751158  0.53054610    -0.74500
O148        O  0.97564238  0.71472841  0.47753663    -0.74600
O149        O  0.02011145  0.71408854  0.47728077    -0.74500
O150        O  0.02014692  0.65793726  0.53052717    -0.74500
O151        O  0.01986344  0.65983830  0.47498370    -0.74400
O152        O  0.01991792  0.71215920  0.53323779    -0.74500
Ni153      Ni  0.97396408  0.68611008  0.50413594     1.25400
Ni154      Ni  0.02157406  0.68609375  0.50399735     1.25400
C155        C  0.99759702  0.71944009  0.54386261     0.87800
C156        C  0.99749867  0.65167762  0.46515096     0.87700
C157        C  0.99800569  0.64867468  0.53969515     0.87700
C158        C  0.99801384  0.72303221  0.46780344     0.87900
C159        C  0.99662222  0.69020263  0.14126181    -0.02500
C160        C  0.00158545  0.83136913  0.29267909    -0.02500
O161        O  0.96885731  0.45156254  0.30639861    -0.74400
O162        O  0.96800182  0.50490580  0.25037029    -0.74500
O163        O  0.96775426  0.44945600  0.25182722    -0.74500
O164        O  0.96922690  0.50614492  0.30533343    -0.74600
O165        O  0.01370168  0.50595666  0.30400491    -0.74500
O166        O  0.01228193  0.44997403  0.25005063    -0.74500
O167        O  0.01255179  0.50489788  0.24872998    -0.74400
O168        O  0.01334935  0.45149195  0.30493805    -0.74500
Ni169      Ni  0.96686738  0.47807471  0.27834055     1.25400
Ni170      Ni  0.01453688  0.47810427  0.27678658     1.25400
C171        C  0.99131993  0.44252381  0.31474240     0.87800
C172        C  0.99002889  0.51446438  0.24118974     0.87700
C173        C  0.98985433  0.43953048  0.24322132     0.87700
C174        C  0.99177430  0.51516374  0.31381015     0.87900
C175        C  0.99788838  0.11969840  0.70621989    -0.02500
C176        C  0.99216335  0.25730893  0.86064032    -0.02500
C177        C  0.00337172  0.11148070  0.29215521    -0.02500
C178        C  0.00273480  0.25909648  0.15037472    -0.02500
O179        O  0.97638287  0.23638557  0.46964500    -0.74400
O180        O  0.97572848  0.29353719  0.52182693    -0.74500
O181        O  0.97514583  0.29024219  0.46659566    -0.74500
O182        O  0.97731379  0.23942689  0.52492599    -0.74600
O183        O  0.02182889  0.24077419  0.52455303    -0.74500
O184        O  0.01964456  0.29123826  0.46592613    -0.74500
O185        O  0.02024736  0.29459337  0.52115186    -0.74400
O186        O  0.02090972  0.23720996  0.46918189    -0.74500
Ni187      Ni  0.97456441  0.26481579  0.49579529     1.25400
Ni188      Ni  0.02224930  0.26596415  0.49515113     1.25400
C189        C  0.99869002  0.22791486  0.46022501     0.87800
C190        C  0.99789738  0.30317963  0.53046150     0.87700
C191        C  0.99709785  0.29894543  0.45643828     0.87700
C192        C  0.99988199  0.23222347  0.53480289     0.87900
C193        C  0.95371977  0.18668256  0.38126530    -0.17800
C194        C  0.95508141  0.17226646  0.35677892    -0.20000
C195        C  0.97889239  0.15953961  0.34897034     0.20700
C196        C  0.00149762  0.16131669  0.36596812    -0.02900
C197        C  0.00040048  0.17653097  0.39021186    -0.06000
C198        C  0.97633572  0.18911856  0.39797195     0.20900
C199        C  0.02350309  0.17949667  0.40641996     0.19100
C200        C  0.04734204  0.16696145  0.39846264    -0.17500
C201        C  0.04823411  0.15137050  0.37475237    -0.19700
C202        C  0.02537308  0.14832787  0.35850441     0.20600
C203        C  0.02604322  0.13240122  0.33499690    -0.32700
C204        C  0.00312874  0.12913370  0.31839097     0.01300
C205        C  0.98040380  0.14482118  0.32462524    -0.24000
C206        C  0.97555386  0.20460166  0.42184645    -0.28600
C207        C  0.99874318  0.20836256  0.43758786     0.07000
C208        C  0.02255012  0.19548152  0.42992768    -0.27300
H209        H  0.93510249  0.19628824  0.38691997     0.11700
H210        H  0.93745446  0.17088584  0.34405939     0.12800
H211        H  0.06528206  0.16917541  0.41060051     0.11900
H212        H  0.06681762  0.14168406  0.36911942     0.11100
H213        H  0.04485966  0.12325233  0.32944110     0.16500
H214        H  0.96326861  0.14419217  0.31114640     0.12400
H215        H  0.95718773  0.21473612  0.42745420     0.15300
H216        H  0.04048987  0.19832620  0.44195939     0.15100
C217        C  0.97373470  0.16777691  0.18137587    -0.17800
C218        C  0.97161960  0.14869860  0.20215232    -0.20000
C219        C  0.98772619  0.15072114  0.22547486     0.20700
C220        C  0.00605864  0.17211580  0.22779480    -0.02900
C221        C  0.00646457  0.19255572  0.20803480    -0.06000
C222        C  0.99066954  0.19010070  0.18447024     0.20900
C223        C  0.02272011  0.21539327  0.21182974     0.19100
C224        C  0.04010682  0.21659515  0.23420830    -0.17500
C225        C  0.04102620  0.19540911  0.25284335    -0.19700
C226        C  0.02372141  0.17332452  0.24999945     0.20600
C227        C  0.02359208  0.15259039  0.26912293    -0.32700
C228        C  0.00396014  0.13201971  0.26847831     0.01300
C229        C  0.98562282  0.13189620  0.24656668    -0.24000
C230        C  0.99164782  0.21031888  0.16473645    -0.28600
C231        C  0.00384210  0.23534146  0.17051971     0.07000
C232        C  0.02085100  0.23681499  0.19349196    -0.27300
H233        H  0.96133252  0.16566360  0.16341429     0.11700
H234        H  0.95766068  0.13217542  0.19981678     0.12800
H235        H  0.05299929  0.23386690  0.23726471     0.11900
H236        H  0.05470173  0.19665965  0.26989905     0.11100
H237        H  0.03822978  0.15308521  0.28533439     0.16500
H238        H  0.96964204  0.11741780  0.24535636     0.12400
H239        H  0.98194232  0.20679985  0.14536875     0.15300
H240        H  0.03273800  0.25468602  0.19713148     0.15100
C241        C  0.04351051  0.18489804  0.64256973    -0.17800
C242        C  0.04432447  0.19964459  0.61834852    -0.20000
C243        C  0.02233726  0.19959484  0.60063844     0.20700
C244        C  0.99927304  0.18473709  0.60757735    -0.02900
C245        C  0.99842348  0.17005591  0.63213203    -0.06000
C246        C  0.02062229  0.17001431  0.64958638     0.20900
C247        C  0.97552547  0.15504599  0.63891959     0.19100
C248        C  0.95352989  0.15494837  0.62121155    -0.17500
C249        C  0.95428615  0.16951848  0.59694371    -0.19700
C250        C  0.97702831  0.18448464  0.58997570     0.20600
C251        C  0.97773623  0.19943920  0.56587582    -0.32700
C252        C  0.00042749  0.21462507  0.55898537     0.01300
C253        C  0.02284322  0.21432225  0.57628430    -0.24000
C254        C  0.02000106  0.15443593  0.67331989    -0.28600
C255        C  0.99733172  0.13874331  0.68070889     0.07000
C256        C  0.97500426  0.13992555  0.66297598    -0.27300
H257        H  0.06082623  0.18508570  0.65579673     0.11700
H258        H  0.06217320  0.21099833  0.61342998     0.12800
H259        H  0.93574569  0.14346735  0.62606305     0.11900
H260        H  0.93704702  0.16909843  0.58362435     0.11100
H261        H  0.96045446  0.19948418  0.55258633     0.16500
H262        H  0.04035496  0.22615466  0.57121110     0.12400
H263        H  0.03847566  0.15275816  0.68428833     0.15300
H264        H  0.95703037  0.12870573  0.66702514     0.15100
C265        C  0.03889280  0.21155709  0.78380895    -0.17800
C266        C  0.03996393  0.19236047  0.76297602    -0.20000
C267        C  0.01892014  0.17399901  0.75938417     0.20700
C268        C  0.99711357  0.17441859  0.77740045    -0.02900
C269        C  0.99590260  0.19391827  0.79834890    -0.06000
C270        C  0.01678800  0.21266365  0.80137107     0.20900
C271        C  0.97373844  0.19476981  0.81604396     0.19100
C272        C  0.95353158  0.17529345  0.81333266    -0.17500
C273        C  0.95535818  0.15523632  0.79327859    -0.19700
C274        C  0.97689897  0.15492930  0.77489776     0.20600
C275        C  0.97839503  0.13564103  0.75393500    -0.32700
C276        C  0.99773980  0.13757913  0.73280473     0.01300
C277        C  0.01924766  0.15551534  0.73781365    -0.24000
C278        C  0.01528279  0.23224484  0.82182396    -0.28600
C279        C  0.99316160  0.23382446  0.83973259     0.07000
C280        C  0.97212107  0.21504335  0.83604731    -0.27300
H281        H  0.05523600  0.22572235  0.78600917     0.11700
H282        H  0.05705948  0.19214353  0.74941557     0.12800
H283        H  0.93640087  0.17545067  0.82684604     0.11900
H284        H  0.93955555  0.14039631  0.79168484     0.11100
H285        H  0.96477196  0.11897696  0.75524776     0.16500
H286        H  0.03713613  0.15459463  0.72582156     0.12400
H287        H  0.03150779  0.24656974  0.82382823     0.15300
H288        H  0.95416040  0.21612213  0.84819810     0.15100
C289        C  0.04285971  0.36426348  0.39697054    -0.17800
C290        C  0.04187958  0.38499517  0.37787414    -0.20000
C291        C  0.01745894  0.39261427  0.36628761     0.20700
C292        C  0.99379818  0.37905035  0.37375740    -0.02900
C293        C  0.99477523  0.35817760  0.39310577    -0.06000
C294        C  0.01940793  0.35092764  0.40490341     0.20900
C295        C  0.97107752  0.34488959  0.40095854     0.19100
C296        C  0.94673437  0.35211494  0.38889611    -0.17500
C297        C  0.94577873  0.37275396  0.36962818    -0.19700
C298        C  0.96915467  0.38650293  0.36210848     0.20600
C299        C  0.96835687  0.40753418  0.34314314    -0.32700
C300        C  0.99192414  0.42111028  0.33557134     0.01300
C301        C  0.01635144  0.41353037  0.34732483    -0.24000
C302        C  0.02009736  0.33095132  0.42492711    -0.28600
C303        C  0.99642626  0.31837738  0.43369309     0.07000
C304        C  0.97205686  0.32506743  0.42117918    -0.27300
H305        H  0.06193313  0.35888279  0.40579283     0.11700
H306        H  0.06022592  0.39516599  0.37225625     0.12800
H307        H  0.92837774  0.34200668  0.39459358     0.11900
H308        H  0.92671513  0.37810541  0.36076609     0.11100
H309        H  0.94943998  0.41310644  0.33407290     0.16500
H310        H  0.03460516  0.42386446  0.34166150     0.12400
H311        H  0.03901277  0.32578315  0.43424589     0.15300
H312        H  0.95375224  0.31521595  0.42750917     0.15100
C313        C  0.03111564  0.35607708  0.15915006    -0.17800
C314        C  0.02853776  0.38137898  0.17144419    -0.20000
C315        C  0.01055762  0.38528120  0.19305365     0.20700
C316        C  0.99499659  0.36343501  0.20232981    -0.02900
C317        C  0.99815265  0.33772829  0.19039273    -0.06000
C318        C  0.01614790  0.33409203  0.16859726     0.20900
C319        C  0.98298146  0.31582360  0.19997733     0.19100
C320        C  0.96465968  0.31976810  0.22128982    -0.17500
C321        C  0.96133436  0.34526536  0.23296065    -0.19700
C322        C  0.97639520  0.36722751  0.22362891     0.20600
C323        C  0.97359509  0.39277424  0.23557711    -0.32700
C324        C  0.98978708  0.41435161  0.22715383     0.01300
C325        C  0.00817303  0.41049437  0.20584446    -0.24000
C326        C  0.01847728  0.30874466  0.15617599    -0.28600
C327        C  0.00389736  0.28630498  0.16588259     0.07000
C328        C  0.98595834  0.29047110  0.18777115    -0.27300
H329        H  0.04499016  0.35365898  0.14235640     0.11700
H330        H  0.04056380  0.39792971  0.16398689     0.12800
H331        H  0.95279771  0.30314326  0.22885938     0.11900
H332        H  0.94706223  0.34777979  0.24938633     0.11100
H333        H  0.95980030  0.39555706  0.25240789     0.16500
H334        H  0.02079641  0.42706181  0.19947248     0.12400
H335        H  0.03075724  0.30713256  0.13812840     0.15300
H336        H  0.97358227  0.27395298  0.19473768     0.15100
C337        C  0.01101499  0.56604834  0.15690257    -0.17800
C338        C  0.00954839  0.59012513  0.14211892    -0.20000
C339        C  0.99777720  0.61314609  0.15367873     0.20700
C340        C  0.98689565  0.61163447  0.18012971    -0.02900
C341        C  0.98757409  0.58718685  0.19468003    -0.06000
C342        C  0.00009925  0.56432667  0.18324881     0.20900
C343        C  0.97592498  0.58576091  0.22082807     0.19100
C344        C  0.96393717  0.60861685  0.23228373    -0.17500
C345        C  0.96374917  0.63288205  0.21809910    -0.19700
C346        C  0.97540974  0.63462850  0.19216722     0.20600
C347        C  0.97675280  0.65930063  0.17867433    -0.32700
C348        C  0.99055495  0.66195482  0.15364604     0.01300
C349        C  0.99781212  0.63795402  0.13988612    -0.24000
C350        C  0.00136283  0.54030115  0.19842615    -0.28600
C351        C  0.98920213  0.53884310  0.22425936     0.07000
C352        C  0.97649543  0.56155385  0.23517919    -0.27300
H353        H  0.02063846  0.54875818  0.14769685     0.11700
H354        H  0.01823991  0.59092731  0.12190680     0.12800
H355        H  0.95496872  0.60780440  0.25237311     0.11900
H356        H  0.95482748  0.65040535  0.22760032     0.11100
H357        H  0.96777886  0.67666915  0.18836429     0.16500
H358        H  0.00602002  0.63904930  0.11947181     0.12400
H359        H  0.01127601  0.52274871  0.19006998     0.15300
H360        H  0.96753561  0.56048199  0.25529486     0.15100
C361        C  0.02472482  0.74018777  0.25380841    -0.17800
C362        C  0.02463462  0.72133690  0.23272834    -0.20000
C363        C  0.01210735  0.72727000  0.20797186     0.20700
C364        C  0.00067260  0.75272415  0.20386022    -0.02900
C365        C  0.00233950  0.77236044  0.22461887    -0.06000
C366        C  0.01334668  0.76566115  0.24998493     0.20900
C367        C  0.99276920  0.79847521  0.22015153     0.19100
C368        C  0.98115228  0.80466604  0.19485188    -0.17500
C369        C  0.97813295  0.78472999  0.17471854    -0.19700
C370        C  0.98759005  0.75851913  0.17913536     0.20600
C371        C  0.98439105  0.73804893  0.15939529    -0.32700
C372        C  0.99566885  0.71229660  0.16348890     0.01300
C373        C  0.01079757  0.70803577  0.18736833    -0.24000
C374        C  0.01238237  0.78414439  0.27145674    -0.28600
C375        C  0.00250591  0.81065770  0.26815310     0.07000
C376        C  0.99450308  0.81772053  0.24121368    -0.27300
H377        H  0.03370605  0.73483664  0.27311568     0.11700
H378        H  0.03361945  0.70182505  0.23608570     0.12800
H379        H  0.97367881  0.82470722  0.19093331     0.11900
H380        H  0.96845054  0.78982744  0.15570336     0.11100
H381        H  0.97427799  0.74260384  0.14049000     0.16500
H382        H  0.02116582  0.68912624  0.19016251     0.12400
H383        H  0.01946728  0.77677747  0.29052190     0.15300
H384        H  0.98796435  0.83792905  0.23671775     0.15100
C385        C  0.04264741  0.57032548  0.38018861    -0.17800
C386        C  0.04353522  0.58941699  0.40121774    -0.20000
C387        C  0.01998295  0.60148917  0.41079579     0.20700
C388        C  0.99530400  0.59436586  0.39885492    -0.02900
C389        C  0.99441615  0.57514723  0.37753281    -0.06000
C390        C  0.01820466  0.56301603  0.36825059     0.20900
C391        C  0.96972922  0.56796398  0.36565479     0.19100
C392        C  0.94619786  0.58020877  0.37505937    -0.17500
C393        C  0.94706892  0.59918092  0.39620049    -0.19700
C394        C  0.97148955  0.60629520  0.40832000     0.20600
C395        C  0.97245625  0.62498009  0.42984202    -0.32700
C396        C  0.99694153  0.63208076  0.44211459     0.01300
C397        C  0.02066367  0.62035863  0.43222846    -0.24000
C398        C  0.01715878  0.54370258  0.34731098    -0.28600
C399        C  0.99262156  0.53620936  0.33543978     0.07000
C400        C  0.96898268  0.54856936  0.34472932    -0.27300
H401        H  0.06111272  0.56121504  0.37329686     0.11700
H402        H  0.06266444  0.59463224  0.41010353     0.12800
H403        H  0.92707209  0.57500786  0.36615422     0.11900
H404        H  0.92859079  0.60821138  0.40316553     0.11100
H405        H  0.95403863  0.63395879  0.43706316     0.16500
H406        H  0.03965020  0.62568892  0.44138088     0.12400
H407        H  0.03550575  0.53431496  0.34044739     0.15300
H408        H  0.94996446  0.54305128  0.33575607     0.15100
C409        C  0.04644642  0.77499194  0.36424387    -0.17800
C410        C  0.04607720  0.76029045  0.38846684    -0.20000
C411        C  0.02282598  0.75907170  0.40442771     0.20700
C412        C  0.99970153  0.77277059  0.39585526    -0.02900
C413        C  0.00001299  0.78736561  0.37112613    -0.06000
C414        C  0.02350023  0.78852786  0.35539337     0.20900
C415        C  0.97676902  0.80039789  0.36198439     0.19100
C416        C  0.95358810  0.79946245  0.37816867    -0.17500
C417        C  0.95333054  0.78525722  0.40282048    -0.19700
C418        C  0.97617820  0.77149018  0.41170442     0.20600
C419        C  0.97578536  0.75598831  0.43574084    -0.32700
C420        C  0.99870344  0.74184012  0.44418032     0.01300
C421        C  0.02221975  0.74393053  0.42849285    -0.24000
C422        C  0.02374488  0.80298804  0.33095376    -0.28600
C423        C  0.00054524  0.81573444  0.32063190     0.07000
C424        C  0.97695168  0.81384299  0.33674223    -0.27300
H425        H  0.06465017  0.77557312  0.35228863     0.11700
H426        H  0.06398775  0.74978493  0.39467685     0.12800
H427        H  0.93555629  0.80958145  0.37166979     0.11900
H428        H  0.93510811  0.78470730  0.41473817     0.11100
H429        H  0.95754770  0.75454357  0.44757080     0.16500
H430        H  0.03994884  0.73298864  0.43450564     0.12400
H431        H  0.04221537  0.80400424  0.31942978     0.15300
H432        H  0.95841088  0.82259054  0.32984384     0.15100
C433        C  0.95614659  0.75859319  0.65669435    -0.17800
C434        C  0.95553177  0.74459989  0.63182137    -0.20000
C435        C  0.97613027  0.74784522  0.61261169     0.20700
C436        C  0.99747029  0.76543126  0.61852755    -0.02900
C437        C  0.99757204  0.78022051  0.64322940    -0.06000
C438        C  0.97702468  0.77661022  0.66255548     0.20900
C439        C  0.01848891  0.79830355  0.64872684     0.19100
C440        C  0.03968913  0.80077966  0.63011470    -0.17500
C441        C  0.03991658  0.78574279  0.60597593    -0.19700
C442        C  0.01880199  0.76817311  0.59984426     0.20600
C443        C  0.01874065  0.75322786  0.57545875    -0.32700
C444        C  0.99726473  0.73608661  0.56908401     0.01300
C445        C  0.97595168  0.73362988  0.58776289    -0.24000
C446        C  0.97760281  0.79122757  0.68723112    -0.28600
C447        C  0.99673805  0.81178738  0.69184459     0.07000
C448        C  0.01799028  0.81373412  0.67265724    -0.27300
H449        H  0.94007976  0.75560099  0.67118671     0.11700
H450        H  0.93902938  0.73106379  0.62770026     0.12800
H451        H  0.05609797  0.81445254  0.63418297     0.11900
H452        H  0.05651553  0.78803996  0.59198324     0.11100
H453        H  0.03529417  0.75509804  0.56132349     0.16500
H454        H  0.95956803  0.72002947  0.58330223     0.12400
H455        H  0.96246278  0.78738252  0.70255181     0.15300
H456        H  0.03504359  0.82654391  0.67632845     0.15100
C457        C  0.98237238  0.79493423  0.81575373    -0.17800
C458        C  0.98741528  0.77596934  0.83625038    -0.20000
C459        C  0.00298247  0.75309735  0.83074278     0.20700
C460        C  0.01450831  0.75007305  0.80471651    -0.02900
C461        C  0.01078819  0.77006568  0.78459540    -0.06000
C462        C  0.99378695  0.79206453  0.78969070     0.20900
C463        C  0.02370486  0.76771097  0.75923953     0.19100
C464        C  0.04011690  0.74537683  0.75407715    -0.17500
C465        C  0.04255662  0.72488137  0.77339244    -0.19700
C466        C  0.02938741  0.72682210  0.79859454     0.20600
C467        C  0.02978828  0.70542194  0.81720122    -0.32700
C468        C  0.01602729  0.70701878  0.84244895     0.01300
C469        C  0.00606524  0.73255313  0.85022319    -0.24000
C470        C  0.98824821  0.81054636  0.76863183    -0.28600
C471        C  0.00100401  0.80856897  0.74283207     0.07000
C472        C  0.01975253  0.78743041  0.73928246    -0.27300
H473        H  0.96949933  0.81185368  0.82030013     0.11700
H474        H  0.97820991  0.77862710  0.85606871     0.12800
H475        H  0.05032715  0.74328932  0.73470462     0.11900
H476        H  0.05443363  0.70733426  0.76845342     0.11100
H477        H  0.04042203  0.68729122  0.81158251     0.16500
H478        H  0.99794030  0.73537440  0.87050906     0.12400
H479        H  0.97417521  0.82639864  0.77284853     0.15300
H480        H  0.03090859  0.78575284  0.72044655     0.15100
C481        C  0.95111182  0.37132609  0.58666886    -0.17800
C482        C  0.95128408  0.39004213  0.60806199    -0.20000
C483        C  0.97466099  0.39460749  0.62318361     0.20700
C484        C  0.99806714  0.38014772  0.61668627    -0.02900
C485        C  0.99790132  0.36132843  0.59513791    -0.06000
C486        C  0.97431900  0.35689250  0.58003694     0.20900
C487        C  0.02137022  0.34695021  0.58874226     0.19100
C488        C  0.04464036  0.35122045  0.60402317    -0.17500
C489        C  0.04481113  0.36986666  0.62533492    -0.19700
C490        C  0.02170563  0.38448720  0.63169799     0.20600
C491        C  0.02191384  0.40337505  0.65283641    -0.32700
C492        C  0.99877086  0.41792294  0.65947039     0.01300
C493        C  0.97512198  0.41336106  0.64464943    -0.24000
C494        C  0.97439872  0.33804661  0.55866702    -0.28600
C495        C  0.99783703  0.32381495  0.55213194     0.07000
C496        C  0.02120704  0.32845391  0.56724080    -0.27300
H497        H  0.93283015  0.36815247  0.57529955     0.11700
H498        H  0.93313624  0.40095675  0.61276916     0.12800
H499        H  0.06274904  0.34018970  0.59943284     0.11900
H500        H  0.06305529  0.37291218  0.63680388     0.11100
H501        H  0.04015048  0.40658030  0.66429902     0.16500
H502        H  0.95719195  0.42453527  0.64964548     0.12400
H503        H  0.95627348  0.33448875  0.54713077     0.15300
H504        H  0.03924144  0.31730050  0.56258155     0.15100
C505        C  0.04820696  0.58813144  0.60105308    -0.17800
C506        C  0.04886555  0.56921069  0.62208496    -0.20000
C507        C  0.02512392  0.56052247  0.63451882     0.20700
C508        C  0.00048738  0.57123994  0.62582175    -0.02900
C509        C  0.99981250  0.59028138  0.60450163    -0.06000
C510        C  0.02378956  0.59868579  0.59202334     0.20900
C511        C  0.97515023  0.60075287  0.59557688     0.19100
C512        C  0.95143694  0.59231726  0.60825884    -0.17500
C513        C  0.95210578  0.57350146  0.62938716    -0.19700
C514        C  0.97649627  0.56272083  0.63819301     0.20600
C515        C  0.97724523  0.54324142  0.65880613    -0.32700
C516        C  0.00166337  0.53190461  0.66717303     0.01300
C517        C  0.02556432  0.54100041  0.65514907    -0.24000
C518        C  0.02296032  0.61747251  0.57074211    -0.28600
C519        C  0.99845233  0.62802060  0.56158427     0.07000
C520        C  0.97461910  0.61946706  0.57417235    -0.27300
H521        H  0.06682193  0.59440997  0.59173697     0.11700
H522        H  0.06796132  0.56123903  0.62851134     0.12800
H523        H  0.93232922  0.60019367  0.60175405     0.11900
H524        H  0.93349230  0.56720998  0.63870051     0.11100
H525        H  0.95868648  0.53655801  0.66797083     0.16500
H526        H  0.04449542  0.53252567  0.66144325     0.12400
H527        H  0.04149214  0.62391865  0.56135223     0.15300
H528        H  0.95564154  0.62754128  0.56749875     0.15100
C529        C  0.05112508  0.58931217  0.84128375    -0.17800
C530        C  0.04922911  0.56450587  0.82768126    -0.20000
C531        C  0.02882776  0.55980806  0.80860788     0.20700
C532        C  0.01054191  0.58058282  0.80281803    -0.02900
C533        C  0.01304975  0.60587260  0.81582540    -0.06000
C534        C  0.03304111  0.61013779  0.83562053     0.20900
C535        C  0.99518562  0.62669563  0.80934255     0.19100
C536        C  0.97495728  0.62223656  0.79008843    -0.17500
C537        C  0.97206129  0.59707273  0.77772563    -0.19700
C538        C  0.98965108  0.57611425  0.78405478     0.20600
C539        C  0.98691437  0.55092375  0.77156328    -0.32700
C540        C  0.00540432  0.53032652  0.77655474     0.01300
C541        C  0.02646827  0.53490046  0.79500192    -0.24000
C542        C  0.03405844  0.63477299  0.84995277    -0.28600
C543        C  0.01587091  0.65572683  0.84397387     0.07000
C544        C  0.99719302  0.65141209  0.82279300    -0.27300
H545        H  0.06673783  0.59218927  0.85628600     0.11700
H546        H  0.06351725  0.54886447  0.83235905     0.12800
H547        H  0.96105718  0.63809272  0.78494317     0.11900
H548        H  0.95607980  0.59401778  0.76316168     0.11100
H549        H  0.97109757  0.54777515  0.75679898     0.16500
H550        H  0.04098420  0.51917699  0.79862121     0.12400
H551        H  0.04828454  0.63684301  0.86634914     0.15300
H552        H  0.98304804  0.66713995  0.81786035     0.15100
C553        C  0.04416801  0.33665314  0.82441784    -0.17800
C554        C  0.04550930  0.36059348  0.80956778    -0.20000
C555        C  0.02292392  0.37024432  0.79583204     0.20700
C556        C  0.99908414  0.35499928  0.79623881    -0.02900
C557        C  0.99794451  0.33049387  0.81072384    -0.06000
C558        C  0.02032070  0.32174879  0.82549576     0.20900
C559        C  0.97440712  0.31484948  0.81051238     0.19100
C560        C  0.95215036  0.32390632  0.79584537    -0.17500
C561        C  0.95298372  0.34856829  0.78217999    -0.19700
C562        C  0.97628183  0.36435359  0.78243530     0.20600
C563        C  0.97713850  0.38932080  0.76918490    -0.32700
C564        C  0.00069562  0.40490303  0.76891857     0.01300
C565        C  0.02367883  0.39492110  0.78190653    -0.24000
C566        C  0.01843918  0.29850904  0.84144367    -0.28600
C567        C  0.99442241  0.28327969  0.84293084     0.07000
C568        C  0.97332596  0.29076250  0.82541652    -0.27300
H569        H  0.06171540  0.32996732  0.83535450     0.11700
H570        H  0.06407035  0.37182769  0.80927390     0.12800
H571        H  0.93388298  0.31219701  0.79543341     0.11900
H572        H  0.93534696  0.35534014  0.77145911     0.11100
H573        H  0.95950925  0.39641410  0.75864518     0.16500
H574        H  0.04203706  0.40650427  0.78148226     0.12400
H575        H  0.03615983  0.29224710  0.85225303     0.15300
H576        H  0.95541660  0.27849599  0.82466796     0.15100
C577        C  0.91389794  0.86416501  0.25315578    -0.17800
C578        C  0.89469542  0.88450696  0.25070277    -0.20000
C579        C  0.89453452  0.90638795  0.26890049     0.20700
C580        C  0.91399001  0.90766339  0.28963356    -0.02900
C581        C  0.93431418  0.88811650  0.29095983    -0.06000
C582        C  0.93407495  0.86604669  0.27297607     0.20900
C583        C  0.95473934  0.89057453  0.31049150     0.19100
C584        C  0.95385533  0.91151128  0.32968432    -0.17500
C585        C  0.93308466  0.93016515  0.32916529    -0.19700
C586        C  0.91337119  0.92859740  0.30894567     0.20600
C587        C  0.89326854  0.94785363  0.30764150    -0.32700
C588        C  0.87432925  0.94799712  0.28624631     0.01300
C589        C  0.87547224  0.92704916  0.26665277    -0.24000
C590        C  0.95412436  0.84641331  0.27499032    -0.28600
C591        C  0.97691119  0.85054217  0.29172771     0.07000
C592        C  0.97594668  0.87233850  0.31032985    -0.27300
H593        H  0.91344240  0.84737260  0.23902862     0.11700
H594        H  0.87981508  0.88297690  0.23475822     0.12800
H595        H  0.96925382  0.91348972  0.34506104     0.11900
H596        H  0.93277891  0.94618348  0.34419678     0.11100
H597        H  0.89269200  0.96347181  0.32309479     0.16500
H598        H  0.86189443  0.92654947  0.24958492     0.12400
H599        H  0.95150988  0.82808112  0.26346739     0.15300
H600        H  0.99160407  0.87492763  0.32525040     0.15100
C601        C  0.95326010  0.03771195  0.24451068    -0.17800
C602        C  0.93210355  0.01930715  0.24307731    -0.20000
C603        C  0.91309004  0.01796727  0.26410510     0.20700
C604        C  0.91553786  0.03516465  0.28681201    -0.02900
C605        C  0.93699025  0.05356885  0.28834555    -0.06000
C606        C  0.95579677  0.05499996  0.26704215     0.20900
C607        C  0.94000329  0.06997596  0.31156044     0.19100
C608        C  0.92159422  0.06799154  0.33303944    -0.17500
C609        C  0.90021089  0.05000168  0.33140267    -0.19700
C610        C  0.89704007  0.03346637  0.30839674     0.20600
C611        C  0.87631258  0.01454161  0.30729046    -0.32700
C612        C  0.87342111  0.99691098  0.28476224     0.01300
C613        C  0.89222241  0.99913204  0.26322936    -0.24000
C614        C  0.97679446  0.07365282  0.26863374    -0.28600
C615        C  0.97931335  0.09154205  0.29104627     0.07000
C616        C  0.96146175  0.08795080  0.31317189    -0.27300
H617        H  0.96764962  0.03840098  0.22801440     0.11700
H618        H  0.93066501  0.00605509  0.22556065     0.12800
H619        H  0.92367021  0.08044376  0.35108757     0.11900
H620        H  0.88628487  0.04883519  0.34828088     0.11100
H621        H  0.86389505  0.01260960  0.32514371     0.16500
H622        H  0.89115109  0.98519205  0.24621710     0.12400
H623        H  0.99122520  0.07451579  0.25217378     0.15300
H624        H  0.96424432  0.09834975  0.33227673     0.15100
C625        C  0.63421329  0.99034000  0.24068457    -0.17800
C626        C  0.65837718  0.98917059  0.22638642    -0.20000
C627        C  0.65891102  0.98059680  0.19909160     0.20700
C628        C  0.63487280  0.97318220  0.18612763    -0.02900
C629        C  0.61059245  0.97376160  0.20067469    -0.06000
C630        C  0.61026840  0.98263450  0.22800428     0.20900
C631        C  0.58664251  0.96553241  0.18783125     0.19100
C632        C  0.58714522  0.95739939  0.16046259    -0.17500
C633        C  0.61108682  0.95773816  0.14581090    -0.19700
C634        C  0.63499331  0.96555764  0.15850475     0.20600
C635        C  0.65900519  0.96570521  0.14398284    -0.32700
C636        C  0.68371458  0.97073544  0.15701811     0.01300
C637        C  0.68304840  0.97934919  0.18457155    -0.24000
C638        C  0.58599070  0.98355789  0.24212847    -0.28600
C639        C  0.56231786  0.97494519  0.22951973     0.07000
C640        C  0.56264507  0.96569318  0.20256972    -0.27300
H641        H  0.63426915  0.99712589  0.26169591     0.11700
H642        H  0.67664036  0.99503049  0.23666007     0.12800
H643        H  0.56897834  0.95105204  0.15030883     0.11900
H644        H  0.61095712  0.95161370  0.12459681     0.11100
H645        H  0.65850459  0.96073054  0.12251548     0.16500
H646        H  0.70112023  0.98576802  0.19478271     0.12400
H647        H  0.58551321  0.99037831  0.26315541     0.15300
H648        H  0.54422556  0.95902745  0.19307849     0.15100
C649        C  0.77835353  0.92808558  0.23735834    -0.17800
C650        C  0.75842398  0.92784276  0.21744218    -0.20000
C651        C  0.75731549  0.94823269  0.19781579     0.20700
C652        C  0.77668294  0.96880287  0.19797228    -0.02900
C653        C  0.79650395  0.96934449  0.21842622    -0.06000
C654        C  0.79728106  0.94890781  0.23817919     0.20900
C655        C  0.81514304  0.99057463  0.21940649     0.19100
C656        C  0.81443853  0.01055738  0.19925436    -0.17500
C657        C  0.79539648  0.00947038  0.17838766    -0.19700
C658        C  0.77619896  0.98884332  0.17777754     0.20600
C659        C  0.75626250  0.98822249  0.15765736    -0.32700
C660        C  0.73486639  0.96961224  0.15912905     0.01300
C661        C  0.73671981  0.94877706  0.17855418    -0.24000
C662        C  0.81667672  0.94975265  0.25867804    -0.28600
C663        C  0.83535579  0.97103833  0.26047400     0.07000
C664        C  0.83387477  0.99171055  0.24069122    -0.27300
H665        H  0.77870886  0.91219581  0.25239292     0.11700
H666        H  0.74373129  0.91181844  0.21753380     0.12800
H667        H  0.82866155  0.02700563  0.19958667     0.11900
H668        H  0.79528173  0.02513548  0.16310544     0.11100
H669        H  0.75773894  0.00239069  0.14113170     0.16500
H670        H  0.72136864  0.93338046  0.17918346     0.12400
H671        H  0.81700156  0.93391940  0.27378319     0.15300
H672        H  0.84667140  0.00917076  0.24180538     0.15100
C673        C  0.05635318  0.03959562  0.33557003    -0.17800
C674        C  0.07632069  0.02015677  0.33495079    -0.20000
C675        C  0.09240627  0.01712539  0.31175292     0.20700
C676        C  0.08874142  0.03391906  0.28908691    -0.02900
C677        C  0.06865816  0.05369597  0.28978112    -0.06000
C678        C  0.05231203  0.05628327  0.31303637     0.20900
C679        C  0.06462285  0.07047662  0.26710147     0.19100
C680        C  0.08042295  0.06691586  0.24368685    -0.17500
C681        C  0.10030112  0.04713391  0.24294369    -0.19700
C682        C  0.10481072  0.03067322  0.26565534     0.20600
C683        C  0.12494824  0.01097729  0.26534450    -0.32700
C684        C  0.12931233  0.99455381  0.28836510     0.01300
C685        C  0.11202445  0.99743191  0.31096214    -0.24000
C686        C  0.03182844  0.07515192  0.31329156    -0.28600
C687        C  0.02793108  0.09283351  0.29127135     0.07000
C688        C  0.04457002  0.09014965  0.26805979    -0.27300
H689        H  0.04398954  0.04149690  0.35361628     0.11700
H690        H  0.07909375  0.00738751  0.35256043     0.12800
H691        H  0.07738860  0.07941199  0.22592792     0.11900
H692        H  0.11223045  0.04480339  0.22465246     0.11100
H693        H  0.13661677  0.00821952  0.24698415     0.16500
H694        H  0.11434064  0.98445636  0.32847796     0.12400
H695        H  0.01865449  0.07622803  0.33082400     0.15300
H696        H  0.04137043  0.10240734  0.25020416     0.15100
C697        C  0.09757101  0.90052541  0.33794165    -0.17800
C698        C  0.07624890  0.88239521  0.33853864    -0.20000
C699        C  0.06269126  0.87552129  0.31448146     0.20700
C700        C  0.07086240  0.88672231  0.28958944    -0.02900
C701        C  0.09193184  0.90568837  0.28908482    -0.06000
C702        C  0.10533928  0.91254938  0.31337014     0.20900
C703        C  0.09861946  0.91873048  0.26461043     0.19100
C704        C  0.08525423  0.91155998  0.24049546    -0.17500
C705        C  0.06489929  0.89216820  0.24087283    -0.19700
C706        C  0.05717254  0.87999924  0.26547220     0.20600
C707        C  0.03556943  0.86183851  0.26642225    -0.32700
C708        C  0.02696741  0.85001582  0.29123562     0.01300
C709        C  0.04060004  0.85827381  0.31524263    -0.24000
C710        C  0.12545469  0.93216913  0.31306207    -0.28600
C711        C  0.13215903  0.94607692  0.28888497     0.07000
C712        C  0.11775164  0.93941974  0.26490019    -0.27300
H713        H  0.10756644  0.90564206  0.35683995     0.11700
H714        H  0.07025190  0.87385558  0.35788810     0.12800
H715        H  0.09032126  0.92117794  0.22139731     0.11900
H716        H  0.05474647  0.88719400  0.22202537     0.11100
H717        H  0.02534665  0.85777588  0.24764305     0.16500
H718        H  0.03354689  0.85234863  0.33514443     0.12400
H719        H  0.13426335  0.93785925  0.33233940     0.15300
H720        H  0.12124524  0.95076928  0.24642181     0.15100
C721        C  0.40114064  0.02056908  0.18204073    -0.17800
C722        C  0.37676474  0.02137028  0.16820352    -0.20000
C723        C  0.35878155  0.99974345  0.16989776     0.20700
C724        C  0.36520776  0.97730832  0.18598301    -0.02900
C725        C  0.39005545  0.97619292  0.19942442    -0.06000
C726        C  0.40806756  0.99798990  0.19752176     0.20900
C727        C  0.39675653  0.95337288  0.21492321     0.19100
C728        C  0.37834271  0.93219799  0.21738767    -0.17500
C729        C  0.35340686  0.93368320  0.20468202    -0.19700
C730        C  0.34673002  0.95610976  0.18885159     0.20600
C731        C  0.32213495  0.95740833  0.17537109    -0.32700
C732        C  0.31666036  0.97809800  0.15651511     0.01300
C733        C  0.33469306  0.00007796  0.15544211    -0.24000
C734        C  0.43247694  0.99699449  0.21147313    -0.28600
C735        C  0.43933042  0.97425350  0.22684504     0.07000
C736        C  0.42150588  0.95237796  0.22815591    -0.27300
H737        H  0.41465787  0.03753504  0.18047636     0.11700
H738        H  0.37202540  0.03887689  0.15607299     0.12800
H739        H  0.38313880  0.91458676  0.22933524     0.11900
H740        H  0.33948677  0.91712567  0.20693092     0.11100
H741        H  0.30781351  0.94124780  0.17807114     0.16500
H742        H  0.33027562  0.01778289  0.14360642     0.12400
H743        H  0.44602277  0.01400560  0.21059968     0.15300
H744        H  0.42638978  0.93501922  0.24046661     0.15100
C745        C  0.19799416  0.92918690  0.21047602    -0.17800
C746        C  0.21639469  0.93038643  0.18918143    -0.20000
C747        C  0.23199966  0.95349907  0.18532699     0.20700
C748        C  0.22896747  0.97568953  0.20295697    -0.02900
C749        C  0.20973591  0.97478838  0.22399483    -0.06000
C750        C  0.19445440  0.95130732  0.22787385     0.20900
C751        C  0.20619893  0.99705893  0.24143996     0.19100
C752        C  0.22248521  0.01986824  0.23808510    -0.17500
C753        C  0.24211921  0.02046282  0.21766227    -0.19700
C754        C  0.24543748  0.99847357  0.19990749     0.20600
C755        C  0.26506661  0.99867996  0.17938580    -0.32700
C756        C  0.26763100  0.97701307  0.16070437     0.01300
C757        C  0.25087835  0.95437963  0.16438704    -0.24000
C758        C  0.17601966  0.95004546  0.24920074    -0.28600
C759        C  0.17062828  0.97268760  0.26572763     0.07000
C760        C  0.18656511  0.99598310  0.26194988    -0.27300
H761        H  0.18634393  0.91100592  0.21319330     0.11700
H762        H  0.21861592  0.91309035  0.17587756     0.12800
H763        H  0.22018982  0.03715228  0.25138648     0.11900
H764        H  0.25459804  0.03817196  0.21565962     0.11100
H765        H  0.27837077  0.01582253  0.17771646     0.16500
H766        H  0.25292893  0.93661933  0.15182351     0.12400
H767        H  0.16637317  0.93097207  0.25292625     0.15300
H768        H  0.18369020  0.01323339  0.27518927     0.15100
C769        C  0.40741153  0.92691551  0.38271074    -0.17800
C770        C  0.38798283  0.92744542  0.40313908    -0.20000
C771        C  0.37608974  0.95182470  0.41087369     0.20700
C772        C  0.38360691  0.97589358  0.39783714    -0.02900
C773        C  0.40315456  0.97535497  0.37724343    -0.06000
C774        C  0.41517048  0.95075711  0.36972776     0.20900
C775        C  0.41079543  0.99945258  0.36432760     0.19100
C776        C  0.39871595  0.02378815  0.37187600    -0.17500
C777        C  0.37932127  0.02432387  0.39233574    -0.19700
C778        C  0.37175279  0.00052636  0.40551362     0.20600
C779        C  0.35269255  0.00095163  0.42637627    -0.32700
C780        C  0.34532440  0.97705537  0.43959533     0.01300
C781        C  0.35696511  0.95256393  0.43158996    -0.24000
C782        C  0.43484300  0.95046973  0.34947452    -0.28600
C783        C  0.44268406  0.97447335  0.33673047     0.07000
C784        C  0.43050226  0.99884523  0.34418675    -0.27300
H785        H  0.41643866  0.90788480  0.37713949     0.11700
H786        H  0.38235231  0.90881029  0.41298844     0.12800
H787        H  0.40437192  0.04242752  0.36205013     0.11900
H788        H  0.37034657  0.04336534  0.39795382     0.11100
H789        H  0.34368841  0.01988585  0.43235681     0.16500
H790        H  0.35137185  0.93402790  0.44167048     0.12400
H791        H  0.44418575  0.93160228  0.34382967     0.15300
H792        H  0.43637039  0.01742788  0.33435630     0.15100
C793        C  0.21171104  0.92915441  0.35645890    -0.17800
C794        C  0.22496012  0.92918775  0.38153191    -0.20000
C795        C  0.22420784  0.95195788  0.39851692     0.20700
C796        C  0.21002439  0.97493949  0.39017994    -0.02900
C797        C  0.19652977  0.97482357  0.36493498    -0.06000
C798        C  0.19738801  0.95184088  0.34800831     0.20900
C799        C  0.18243822  0.99779071  0.35653536     0.19100
C800        C  0.18201417  0.02073572  0.37330446    -0.17500
C801        C  0.19542206  0.02088490  0.39829800    -0.19700
C802        C  0.20954645  0.99811971  0.40691235     0.20600
C803        C  0.22362385  0.99829520  0.43166757    -0.32700
C804        C  0.23796106  0.97548451  0.44002065     0.01300
C805        C  0.23783652  0.95230212  0.42343214    -0.24000
C806        C  0.18349720  0.95171860  0.32319919    -0.28600
C807        C  0.16745195  0.97371953  0.31552677     0.07000
C808        C  0.16870256  0.99736821  0.33170284    -0.27300
H809        H  0.21253012  0.91130893  0.34374886     0.11700
H810        H  0.23588076  0.91141184  0.38760615     0.12800
H811        H  0.17118543  0.03854443  0.36714806     0.11900
H812        H  0.19481629  0.03884645  0.41084965     0.11100
H813        H  0.22378635  0.01629911  0.44419202     0.16500
H814        H  0.24921902  0.93477159  0.42940200     0.12400
H815        H  0.18400998  0.93393280  0.31036464     0.15300
H816        H  0.15887941  0.01561735  0.32526557     0.15100
C817        C  0.05688498  0.05577512  0.75563441    -0.17800
C818        C  0.07524927  0.03462321  0.75516342    -0.20000
C819        C  0.08818133  0.02749559  0.73080823     0.20700
C820        C  0.08333335  0.04243716  0.70699649    -0.02900
C821        C  0.06471794  0.06364974  0.70742948    -0.06000
C822        C  0.05105663  0.06997831  0.73171472     0.20900
C823        C  0.05878790  0.07751761  0.68322048     0.19100
C824        C  0.07186268  0.07052935  0.65892159    -0.17500
C825        C  0.09041188  0.04964471  0.65853174    -0.19700
C826        C  0.09614229  0.03542269  0.68242907     0.20600
C827        C  0.11412643  0.01400940  0.68193041    -0.32700
C828        C  0.12009419  0.99934075  0.70580106     0.01300
C829        C  0.10558361  0.00548840  0.72975933    -0.24000
C830        C  0.03079270  0.08933058  0.73136111    -0.28600
C831        C  0.02403344  0.10302965  0.70712991     0.07000
C832        C  0.03877077  0.09703470  0.68321802    -0.27300
H833        H  0.04671906  0.06055495  0.77454361     0.11700
H834        H  0.07903218  0.02358138  0.77374607     0.12800
H835        H  0.06740613  0.08091727  0.64010379     0.11900
H836        H  0.10005349  0.04441040  0.63945726     0.11100
H837        H  0.12259947  0.00834328  0.66246950     0.16500
H838        H  0.10854350  0.99344409  0.74786881     0.12400
H839        H  0.01928702  0.09272998  0.74976140     0.15300
H840        H  0.03309616  0.10543927  0.66379639     0.15100
C841        C  0.08196356  0.87191739  0.75355908    -0.17800
C842        C  0.10161640  0.89196093  0.75175473    -0.20000
C843        C  0.10101163  0.91093775  0.73063295     0.20700
C844        C  0.08045346  0.90947951  0.71108449    -0.02900
C845        C  0.06007377  0.88983625  0.71346305    -0.06000
C846        C  0.06092435  0.87081405  0.73466224     0.20900
C847        C  0.03872377  0.88948959  0.69480441     0.19100
C848        C  0.03823511  0.90822385  0.67350032    -0.17500
C849        C  0.05883475  0.92705903  0.67063255    -0.19700
C850        C  0.07995761  0.92791612  0.68940373     0.20600
C851        C  0.10022243  0.94728477  0.68712444    -0.32700
C852        C  0.12030959  0.95015781  0.70723859     0.01300
C853        C  0.12019167  0.93166953  0.72915224    -0.24000
C854        C  0.04076661  0.85110539  0.73669049    -0.28600
C855        C  0.01924225  0.85025672  0.71793996     0.07000
C856        C  0.01828635  0.87037628  0.69760491    -0.27300
H857        H  0.08303596  0.85747628  0.76998968     0.11700
H858        H  0.11733596  0.89258930  0.76689699     0.12800
H859        H  0.02199737  0.90819470  0.65892479     0.11900
H860        H  0.05803116  0.94123369  0.65394583     0.11100
H861        H  0.09974153  0.96108802  0.67011474     0.16500
H862        H  0.13437328  0.93347782  0.74560515     0.12400
H863        H  0.04201675  0.83674877  0.75311587     0.15300
H864        H  0.00183807  0.87042188  0.68325126     0.15100
C865        C  0.20201702  0.02221565  0.64276083    -0.17800
C866        C  0.21819292  0.02291111  0.61951655    -0.20000
C867        C  0.22164406  0.99973677  0.60350328     0.20700
C868        C  0.20883663  0.97558767  0.61113505    -0.02900
C869        C  0.19197726  0.97508138  0.63420223    -0.06000
C870        C  0.18869338  0.99845468  0.65009995     0.20900
C871        C  0.17847580  0.95118832  0.64134496     0.19100
C872        C  0.18291073  0.92770165  0.62607066    -0.17500
C873        C  0.20001926  0.92805451  0.60351363    -0.19700
C874        C  0.21272804  0.95197961  0.59564429     0.20600
C875        C  0.22908475  0.95273720  0.57245289    -0.32700
C876        C  0.24131516  0.97689618  0.56422703     0.01300
C877        C  0.23760911  0.00029190  0.57998835    -0.24000
C878        C  0.17210090  0.99772362  0.67303226    -0.28600
C879        C  0.15688262  0.97456892  0.67946257     0.07000
C880        C  0.16080596  0.95113718  0.66359567    -0.27300
H881        H  0.19965535  0.04036258  0.65481132     0.11700
H882        H  0.22800096  0.04157492  0.61406494     0.12800
H883        H  0.17302213  0.90906991  0.63147784     0.11900
H884        H  0.20300152  0.90968461  0.59197318     0.11100
H885        H  0.23203976  0.93452536  0.56062895     0.16500
H886        H  0.24737564  0.01887247  0.57414302     0.12400
H887        H  0.17036091  0.01555008  0.68569598     0.15300
H888        H  0.15086439  0.93254131  0.66890247     0.15100
C889        C  0.20679452  0.02396841  0.80197948    -0.17800
C890        C  0.18719145  0.02337520  0.78174104    -0.20000
C891        C  0.18430921  0.00068269  0.76489125     0.20700
C892        C  0.20177932  0.97875865  0.76797092    -0.02900
C893        C  0.22198252  0.97962606  0.78796789    -0.06000
C894        C  0.22414189  0.00208221  0.80535282     0.20900
C895        C  0.24013583  0.95814876  0.79035340     0.19100
C896        C  0.23796145  0.93600200  0.77269704    -0.17500
C897        C  0.21761873  0.93491716  0.75321462    -0.19700
C898        C  0.19933800  0.95612063  0.75084267     0.20600
C899        C  0.17875232  0.95505986  0.73157535    -0.32700
C900        C  0.16030139  0.97636335  0.72876619     0.01300
C901        C  0.16440190  0.99972563  0.74489692    -0.24000
C902        C  0.24370120  0.00245882  0.82569016    -0.28600
C903        C  0.26177688  0.98075260  0.82898481     0.07000
C904        C  0.26018121  0.95917431  0.81026050    -0.27300
H905        H  0.20838987  0.04155641  0.81498811     0.11700
H906        H  0.17404900  0.04051176  0.77952177     0.12800
H907        H  0.25183099  0.91937746  0.77414346     0.11900
H908        H  0.21617319  0.91747000  0.74000373     0.11100
H909        H  0.17707437  0.93756546  0.71844286     0.16500
H910        H  0.15286949  0.01774511  0.74170390     0.12400
H911        H  0.24493337  0.02028204  0.83828957     0.15300
H912        H  0.27453866  0.94293609  0.81147058     0.15100
C913        C  0.58820580  0.92649042  0.38608484    -0.17800
C914        C  0.60725458  0.92652009  0.40685490    -0.20000
C915        C  0.61979151  0.95054853  0.41475685     0.20700
C916        C  0.61296998  0.97484768  0.40176369    -0.02900
C917        C  0.59372411  0.97482700  0.38085264    -0.06000
C918        C  0.58137533  0.95050031  0.37293992     0.20900
C919        C  0.58692671  0.99910375  0.36781689     0.19100
C920        C  0.59943713  0.02315321  0.37575044    -0.17500
C921        C  0.61859870  0.02316048  0.39643737    -0.19700
C922        C  0.62548230  0.99912486  0.40953816     0.20600
C923        C  0.64481690  0.99889504  0.43011535    -0.32700
C924        C  0.65191490  0.97468402  0.44295372     0.01300
C925        C  0.63919964  0.95063285  0.43525367    -0.24000
C926        C  0.56241793  0.95058419  0.35201530    -0.28600
C927        C  0.55547167  0.97469931  0.33899630     0.07000
C928        C  0.56778369  0.99889298  0.34704577    -0.27300
H929        H  0.57884958  0.90766700  0.38025973     0.11700
H930        H  0.61227123  0.90771802  0.41666294     0.12800
H931        H  0.59444680  0.04194739  0.36591089     0.11900
H932        H  0.62806731  0.04195863  0.40216047     0.11100
H933        H  0.65460736  0.01754084  0.43582892     0.16500
H934        H  0.64452054  0.93191148  0.44507523     0.12400
H935        H  0.55294033  0.93186244  0.34601502     0.15300
H936        H  0.56259851  0.01756580  0.33705450     0.15100
C937        C  0.81684968  0.92548767  0.36794470    -0.17800
C938        C  0.80161830  0.92579467  0.39183548    -0.20000
C939        C  0.78717055  0.94882578  0.39926996     0.20700
C940        C  0.78734717  0.97142713  0.38194108    -0.02900
C941        C  0.80247664  0.97096046  0.35760019    -0.06000
C942        C  0.81775300  0.94814056  0.35098680     0.20900
C943        C  0.80248062  0.99334953  0.34004706     0.19100
C944        C  0.78704252  0.01594060  0.34687654    -0.17500
C945        C  0.77243412  0.01662967  0.37126045    -0.19700
C946        C  0.77272526  0.99460659  0.38909815     0.20600
C947        C  0.75882119  0.99539146  0.41400562    -0.32700
C948        C  0.75894308  0.97310774  0.43166244     0.01300
C949        C  0.77278849  0.94971940  0.42383607    -0.24000
C950        C  0.83407583  0.94838776  0.32782652    -0.28600
C951        C  0.83589440  0.97133313  0.31083754     0.07000
C952        C  0.81836195  0.99297674  0.31635221    -0.27300
H953        H  0.82826761  0.90764582  0.36294458     0.11700
H954        H  0.80151992  0.90817217  0.40474461     0.12800
H955        H  0.78669369  0.03331053  0.33362994     0.11900
H956        H  0.76107645  0.03449955  0.37627882     0.11100
H957        H  0.74760315  0.01323703  0.41947744     0.16500
H958        H  0.77267260  0.93230305  0.43705053     0.12400
H959        H  0.84509662  0.93027156  0.32317086     0.15300
H960        H  0.81817515  0.01012890  0.30279065     0.15100
C961        C  0.90267641  0.85770627  0.68989495    -0.17800
C962        C  0.88207630  0.87684365  0.69005808    -0.20000
C963        C  0.88429685  0.90031094  0.70593155     0.20700
C964        C  0.90670028  0.90344933  0.72305773    -0.02900
C965        C  0.92666529  0.88331977  0.72415717    -0.06000
C966        C  0.92532188  0.86100686  0.70658338     0.20900
C967        C  0.94864601  0.88630429  0.74179312     0.19100
C968        C  0.95031475  0.90921136  0.75851907    -0.17500
C969        C  0.93128448  0.92968536  0.75646298    -0.19700
C970        C  0.90977419  0.92722058  0.73828317     0.20600
C971        C  0.89237566  0.94880156  0.73381237    -0.32700
C972        C  0.87096144  0.94706932  0.71490492     0.01300
C973        C  0.86541195  0.92130171  0.70385931    -0.24000
C974        C  0.94709883  0.84311631  0.70497838    -0.28600
C975        C  0.96976504  0.84561750  0.72238145     0.07000
C976        C  0.96924038  0.86711020  0.74153592    -0.27300
H977        H  0.90104151  0.84046598  0.67642923     0.11700
H978        H  0.86509455  0.87394883  0.67669515     0.12800
H979        H  0.96699070  0.91186203  0.77232497     0.11900
H980        H  0.93374498  0.94773859  0.76864187     0.11100
H981        H  0.89681485  0.96763261  0.74392602     0.16500
H982        H  0.84745496  0.91801455  0.69205241     0.12400
H983        H  0.94607742  0.82824144  0.68913245     0.15300
H984        H  0.98607728  0.87004773  0.75509505     0.15100
C985        C  0.82367500  0.93711427  0.58736040    -0.17800
C986        C  0.83930190  0.93750581  0.61108346    -0.20000
C987        C  0.83480501  0.95686562  0.63153027     0.20700
C988        C  0.81520733  0.97670798  0.62736343    -0.02900
C989        C  0.79983176  0.97668974  0.60322175    -0.06000
C990        C  0.80362859  0.95641976  0.58335935     0.20900
C991        C  0.78036854  0.99674583  0.59921093     0.19100
C992        C  0.77662945  0.01675790  0.61906351    -0.17500
C993        C  0.79184383  0.01673398  0.64290557    -0.19700
C994        C  0.81098017  0.99665091  0.64731221     0.20600
C995        C  0.82527010  0.99573438  0.67177253    -0.32700
C996        C  0.84246812  0.97400708  0.67803680     0.01300
C997        C  0.84910004  0.95636454  0.65626858    -0.24000
C998        C  0.78711859  0.95573135  0.56010803    -0.28600
C999        C  0.76756431  0.97564002  0.55619581     0.07000
C1000       C  0.76467353  0.99626231  0.57564048    -0.27300
H1001       H  0.82713403  0.92157011  0.57224084     0.11700
H1002       H  0.85441526  0.92218739  0.61377273     0.12800
H1003       H  0.76173044  0.03227668  0.61628220     0.11900
H1004       H  0.78832584  0.03218192  0.65811751     0.11100
H1005       H  0.82168400  0.01121810  0.68693686     0.16500
H1006       H  0.86546307  0.94240823  0.65797980     0.12400
H1007       H  0.78946033  0.93984202  0.54511575     0.15300
H1008       H  0.74942804  0.01147423  0.57289821     0.15100
C1009       C  0.94257795  0.00942640  0.67610133    -0.17800
C1010       C  0.96241851  0.02924699  0.67622240    -0.20000
C1011       C  0.95795269  0.05402987  0.68925708     0.20700
C1012       C  0.93305781  0.05918710  0.70141799    -0.02900
C1013       C  0.91335467  0.03881361  0.70221847    -0.06000
C1014       C  0.91820871  0.01385844  0.68954175     0.20900
C1015       C  0.88888317  0.04343717  0.71569476     0.19100
C1016       C  0.88381150  0.06899811  0.72682412    -0.17500
C1017       C  0.90288377  0.08960721  0.72480444    -0.19700
C1018       C  0.92778074  0.08475055  0.71252655     0.20600
C1019       C  0.94762599  0.10482499  0.71157070    -0.32700
C1020       C  0.97431040  0.09866639  0.70403433     0.01300
C1021       C  0.97821437  0.07343241  0.69081322    -0.24000
C1022       C  0.89879117  0.99363606  0.69074694    -0.28600
C1023       C  0.87502155  0.99697156  0.70605227     0.07000
C1024       C  0.87000544  0.02248550  0.71781968    -0.27300
H1025       H  0.94654768  0.99039193  0.66607956     0.11700
H1026       H  0.98135618  0.02508139  0.66636837     0.12800
H1027       H  0.86505934  0.07307955  0.73705836     0.11900
H1028       H  0.89845861  0.10912288  0.73357518     0.11100
H1029       H  0.94235312  0.12514064  0.71743395     0.16500
H1030       H  0.99700466  0.06838362  0.68139919     0.12400
H1031       H  0.90256308  0.97468188  0.68046752     0.15300
H1032       H  0.85128706  0.02637385  0.72812991     0.15100
C1033       C  0.73903221  0.98290606  0.75749398    -0.17800
C1034       C  0.75842837  0.97836766  0.73741148    -0.20000
C1035       C  0.78567557  0.97809644  0.74420800     0.20700
C1036       C  0.79333143  0.98259174  0.77141854    -0.02900
C1037       C  0.77361937  0.98521547  0.79201629    -0.06000
C1038       C  0.74642494  0.98570076  0.78497409     0.20900
C1039       C  0.78111727  0.98720312  0.81959946     0.19100
C1040       C  0.80841308  0.98857921  0.82614066    -0.17500
C1041       C  0.82793559  0.98745155  0.80558354    -0.19700
C1042       C  0.82061089  0.98390074  0.77815134     0.20600
C1043       C  0.84005031  0.98161066  0.75743724    -0.32700
C1044       C  0.83295538  0.97639219  0.72991244     0.01300
C1045       C  0.80527696  0.97325793  0.72425980    -0.24000
C1046       C  0.72699725  0.98836876  0.80547119    -0.28600
C1047       C  0.73364798  0.98645647  0.83355839     0.07000
C1048       C  0.76126242  0.98708772  0.84009228    -0.27300
H1049       H  0.71816880  0.98321762  0.75165672     0.11700
H1050       H  0.75212498  0.97537112  0.71650168     0.12800
H1051       H  0.81468627  0.99049301  0.84717777     0.11900
H1052       H  0.84881378  0.98866555  0.81123707     0.11100
H1053       H  0.86074473  0.98411042  0.76295891     0.16500
H1054       H  0.79850026  0.96705159  0.70430891     0.12400
H1055       H  0.70668834  0.99148740  0.79893476     0.15300
H1056       H  0.76742618  0.98702394  0.86119321     0.15100
C1057       C  0.63137369  0.02160272  0.61263081    -0.17800
C1058       C  0.61270997  0.02171613  0.63384507    -0.20000
C1059       C  0.59765743  0.99860340  0.63960972     0.20700
C1060       C  0.60177732  0.97495521  0.62422030    -0.02900
C1061       C  0.62066884  0.97482623  0.60282539    -0.06000
C1062       C  0.63536470  0.99834505  0.59687902     0.20900
C1063       C  0.62467836  0.95126455  0.58726635     0.19100
C1064       C  0.60986040  0.92803118  0.59330796    -0.17500
C1065       C  0.59107799  0.92818169  0.61446781    -0.19700
C1066       C  0.58678980  0.95156998  0.62995890     0.20600
C1067       C  0.56743124  0.95217351  0.65069743    -0.32700
C1068       C  0.56266388  0.97597460  0.66553088     0.01300
C1069       C  0.57819179  0.99893949  0.66012959    -0.24000
C1070       C  0.65376595  0.99823183  0.57528342    -0.28600
C1071       C  0.65798651  0.97480712  0.55971771     0.07000
C1072       C  0.64337452  0.95137514  0.56591511    -0.27300
H1073       H  0.64259051  0.03977821  0.60844089     0.11700
H1074       H  0.60984292  0.03999420  0.64556966     0.12800
H1075       H  0.61270438  0.90976011  0.58156908     0.11900
H1076       H  0.57976410  0.91004909  0.61858611     0.11100
H1077       H  0.55555724  0.93437046  0.65471475     0.16500
H1078       H  0.57484752  0.01728882  0.67162597     0.12400
H1079       H  0.66500141  0.01633436  0.57077230     0.15300
H1080       H  0.64636617  0.93325550  0.55395552     0.15100
C1081       C  0.42222203  0.02618212  0.60395493    -0.17800
C1082       C  0.40255041  0.02593634  0.58373104    -0.20000
C1083       C  0.38846057  0.00221060  0.57776395     0.20700
C1084       C  0.39506842  0.97823429  0.59146562    -0.02900
C1085       C  0.41488778  0.97848213  0.61183675    -0.06000
C1086       C  0.42810712  0.00270959  0.61852262     0.20900
C1087       C  0.42085588  0.95466502  0.62608026     0.19100
C1088       C  0.40775459  0.93063109  0.61918328    -0.17500
C1089       C  0.38812035  0.93038491  0.59899839    -0.19700
C1090       C  0.38131883  0.95416303  0.58541887     0.20600
C1091       C  0.36053786  0.95438922  0.56641312    -0.32700
C1092       C  0.35305480  0.97839851  0.55348122     0.01300
C1093       C  0.36745490  0.00215469  0.55886227    -0.24000
C1094       C  0.44640317  0.00318798  0.64013894    -0.28600
C1095       C  0.45161921  0.97974219  0.65513263     0.07000
C1096       C  0.43924699  0.95542861  0.64749980    -0.27300
H1097       H  0.43241774  0.04487605  0.60861661     0.11700
H1098       H  0.39795642  0.04444429  0.57316903     0.12800
H1099       H  0.41229407  0.91213546  0.62979762     0.11900
H1100       H  0.37787288  0.91170308  0.59439497     0.11100
H1101       H  0.34975420  0.93591256  0.56220707     0.16500
H1102       H  0.36212667  0.02064837  0.54861632     0.12400
H1103       H  0.45619881  0.02190712  0.64557584     0.15300
H1104       H  0.44336703  0.93715216  0.65868702     0.15100
C1105       C  0.59166427  0.01564637  0.83316076    -0.17800
C1106       C  0.61570435  0.01543740  0.84770827    -0.20000
C1107       C  0.63626826  0.99759262  0.84046512     0.20700
C1108       C  0.63214717  0.97899617  0.81922709    -0.02900
C1109       C  0.60766788  0.97874411  0.80495477    -0.06000
C1110       C  0.58752271  0.99758279  0.81153247     0.20900
C1111       C  0.60352850  0.95988486  0.78387285     0.19100
C1112       C  0.62371652  0.94138199  0.77735014    -0.17500
C1113       C  0.64795960  0.94169415  0.79150069    -0.19700
C1114       C  0.65242449  0.96055505  0.81235722     0.20600
C1115       C  0.67710066  0.96183380  0.82585812    -0.32700
C1116       C  0.68294794  0.98276565  0.84462885     0.01300
C1117       C  0.66104144  0.99849539  0.85374528    -0.24000
C1118       C  0.56378820  0.99814305  0.79619630    -0.28600
C1119       C  0.55966257  0.97937931  0.77514960     0.07000
C1120       C  0.57943915  0.96009835  0.76942037    -0.27300
H1121       H  0.57637669  0.03005125  0.83872641     0.11700
H1122       H  0.61850022  0.02977066  0.86415161     0.12800
H1123       H  0.62084458  0.92681700  0.76113173     0.11900
H1124       H  0.66336120  0.92743686  0.78586043     0.11100
H1125       H  0.69256884  0.94752832  0.82047979     0.16500
H1126       H  0.66262519  0.01127089  0.87146599     0.12400
H1127       H  0.54857477  0.01302186  0.80061016     0.15300
H1128       H  0.57647191  0.94585907  0.75289361     0.15100
C1129       C  0.34941893  0.02558196  0.78527920    -0.17800
C1130       C  0.37492387  0.02722982  0.77347821    -0.20000
C1131       C  0.39356319  0.00643011  0.77707044     0.20700
C1132       C  0.38642100  0.98393351  0.79293091    -0.02900
C1133       C  0.36097686  0.98261539  0.80531230    -0.06000
C1134       C  0.34226812  0.00335327  0.80131449     0.20900
C1135       C  0.35418117  0.96030301  0.82142275     0.19100
C1136       C  0.37236313  0.93910997  0.82446095    -0.17500
C1137       C  0.39734421  0.94019257  0.81191105    -0.19700
C1138       C  0.40459172  0.96253387  0.79623136     0.20600
C1139       C  0.42950234  0.96346879  0.78334631    -0.32700
C1140       C  0.43680213  0.98555116  0.76723703     0.01300
C1141       C  0.41891650  0.00728503  0.76457874    -0.24000
C1142       C  0.31704493  0.00174202  0.81394610    -0.28600
C1143       C  0.31124318  0.98124425  0.83303993     0.07000
C1144       C  0.32954420  0.95959248  0.83472809    -0.27300
H1145       H  0.33540499  0.04184538  0.78212911     0.11700
H1146       H  0.37997233  0.04465205  0.76131804     0.12800
H1147       H  0.36732663  0.92173683  0.83670973     0.11900
H1148       H  0.41103418  0.92355730  0.81452010     0.11100
H1149       H  0.44311629  0.94668338  0.78549224     0.16500
H1150       H  0.42423995  0.02424599  0.75186209     0.12400
H1151       H  0.30247936  0.01742646  0.81033146     0.15300
H1152       H  0.32503739  0.94175106  0.84634899     0.15100
C1153       C  0.32381274  0.94028494  0.93258858    -0.17800
C1154       C  0.32577693  0.91984105  0.95180285    -0.20000
C1155       C  0.30947146  0.89698632  0.94979343     0.20700
C1156       C  0.29081444  0.89470105  0.92848324    -0.02900
C1157       C  0.28855414  0.91562343  0.90923719    -0.06000
C1158       C  0.30534785  0.93827025  0.91124289     0.20900
C1159       C  0.26948259  0.91397469  0.88818686     0.19100
C1160       C  0.25321028  0.89095116  0.88631826    -0.17500
C1161       C  0.25582955  0.86990097  0.90512119    -0.19700
C1162       C  0.27443628  0.87164703  0.92648177     0.20600
C1163       C  0.27662192  0.85111780  0.94614733    -0.32700
C1164       C  0.29428650  0.85399663  0.96847180     0.01300
C1165       C  0.31123226  0.87672620  0.96919486    -0.24000
C1166       C  0.30367441  0.95854998  0.89182257    -0.28600
C1167       C  0.28479963  0.95758885  0.87040174     0.07000
C1168       C  0.26707779  0.93529908  0.86944150    -0.27300
H1169       H  0.33671110  0.95771806  0.93445711     0.11700
H1170       H  0.34007592  0.92189880  0.96824280     0.12800
H1171       H  0.23851919  0.88915418  0.87022202     0.11900
H1172       H  0.24303014  0.85241035  0.90316383     0.11100
H1173       H  0.26430087  0.83335124  0.94411179     0.16500
H1174       H  0.32522450  0.87915847  0.98586761     0.12400
H1175       H  0.31733802  0.97545039  0.89321934     0.15300
H1176       H  0.25145481  0.93411131  0.85437460     0.15100
C1177       C  0.24852928  0.93045374  0.06049202    -0.17800
C1178       C  0.24961395  0.91140710  0.03951208    -0.20000
C1179       C  0.26813917  0.89030481  0.04058055     0.20700
C1180       C  0.28478814  0.88762139  0.06338674    -0.02900
C1181       C  0.28521507  0.90801605  0.08336840    -0.06000
C1182       C  0.26693258  0.92943354  0.08199007     0.20900
C1183       C  0.30482679  0.90765750  0.10380138     0.19100
C1184       C  0.32183048  0.88527838  0.10594276    -0.17500
C1185       C  0.31967390  0.86375815  0.08752667    -0.19700
C1186       C  0.30180052  0.86519796  0.06557497     0.20600
C1187       C  0.30182923  0.84563924  0.04481362    -0.32700
C1188       C  0.29020028  0.85146052  0.01929624     0.01300
C1189       C  0.27160195  0.87296048  0.01844970    -0.24000
C1190       C  0.26799033  0.94998979  0.10148431    -0.28600
C1191       C  0.28898940  0.95147037  0.12074603     0.07000
C1192       C  0.30771143  0.93003315  0.12107055    -0.27300
H1193       H  0.23426621  0.94674935  0.05915658     0.11700
H1194       H  0.23631391  0.91344204  0.02224569     0.12800
H1195       H  0.33681278  0.88444357  0.12182601     0.11900
H1196       H  0.33309688  0.84681443  0.08947567     0.11100
H1197       H  0.31314423  0.82733527  0.04760743     0.16500
H1198       H  0.26051966  0.87718772  0.00006056     0.12400
H1199       H  0.25323896  0.96589475  0.10074375     0.15300
H1200       H  0.32495718  0.93026736  0.13408131     0.15100
C1201       C  0.10816182  0.65277211  0.09963829    -0.17800
C1202       C  0.08694912  0.65308840  0.11812447    -0.20000
C1203       C  0.06949046  0.67506249  0.11890850     0.20700
C1204       C  0.07499875  0.69792058  0.10295662    -0.02900
C1205       C  0.09729219  0.69813882  0.08540591    -0.06000
C1206       C  0.11283773  0.67491530  0.08255558     0.20900
C1207       C  0.10257677  0.72070753  0.06902938     0.19100
C1208       C  0.08613278  0.74345280  0.07136808    -0.17500
C1209       C  0.06351331  0.74294215  0.08813542    -0.19700
C1210       C  0.05735470  0.71985920  0.10328053     0.20600
C1211       C  0.03296470  0.71751058  0.11704014    -0.32700
C1212       C  0.02564504  0.69330361  0.13032690     0.01300
C1213       C  0.04574002  0.67374263  0.13388089    -0.24000
C1214       C  0.13107437  0.67308051  0.06109832    -0.28600
C1215       C  0.13613509  0.69497491  0.04301892     0.07000
C1216       C  0.12265137  0.71935165  0.04907017    -0.27300
H1217       H  0.12032089  0.63483834  0.09801231     0.11700
H1218       H  0.08315590  0.63543060  0.13042099     0.12800
H1219       H  0.08991130  0.76113220  0.05904676     0.11900
H1220       H  0.05029772  0.76015650  0.08843804     0.11100
H1221       H  0.01868564  0.73376580  0.11558499     0.16500
H1222       H  0.04291169  0.65686497  0.14732293     0.12400
H1223       H  0.13883776  0.65322988  0.05753287     0.15300
H1224       H  0.12485343  0.73672331  0.03620601     0.15100
C1225       C  0.05556170  0.68895594  0.98150156    -0.17800
C1226       C  0.03678481  0.68883001  0.96050702    -0.20000
C1227       C  0.04509611  0.68865274  0.93318090     0.20700
C1228       C  0.07251689  0.68883374  0.92693582    -0.02900
C1229       C  0.09154582  0.69023407  0.94823062    -0.06000
C1230       C  0.08296886  0.68989018  0.97555088     0.20900
C1231       C  0.11903269  0.69172287  0.94220399     0.19100
C1232       C  0.12723376  0.69094462  0.91479568    -0.17500
C1233       C  0.10837427  0.68881435  0.89368937    -0.19700
C1234       C  0.08087266  0.68791382  0.89950597     0.20600
C1235       C  0.06161341  0.68588746  0.87852248    -0.32700
C1236       C  0.03387509  0.68500474  0.88446323     0.01300
C1237       C  0.02627075  0.68821482  0.91215119    -0.24000
C1238       C  0.10177875  0.69011776  0.99660004    -0.28600
C1239       C  0.12955788  0.69245935  0.99132847     0.07000
C1240       C  0.13775224  0.69356071  0.96364696    -0.27300
H1241       H  0.04861558  0.68866697  0.00242930     0.11700
H1242       H  0.01572897  0.68844683  0.96566055     0.12800
H1243       H  0.14827133  0.69178243  0.90966852     0.11900
H1244       H  0.11531598  0.68804046  0.87278481     0.11100
H1245       H  0.06818424  0.68458426  0.85751958     0.16500
H1246       H  0.00560459  0.69050735  0.91796953     0.12400
H1247       H  0.09423933  0.68769050  0.01707042     0.15300
H1248       H  0.15886848  0.69444627  0.95885789     0.15100
C1249       C  0.22518059  0.59882867  0.05705249    -0.17800
C1250       C  0.21260893  0.62385434  0.05673101    -0.20000
C1251       C  0.19423645  0.63003328  0.03614283     0.20700
C1252       C  0.18811790  0.61080205  0.01597806    -0.02900
C1253       C  0.20107618  0.58572414  0.01601911    -0.06000
C1254       C  0.21971951  0.57979047  0.03663296     0.20900
C1255       C  0.19580324  0.56684212  0.99511656     0.19100
C1256       C  0.17686651  0.57281072  0.97503702    -0.17500
C1257       C  0.16352599  0.59744767  0.97541914    -0.19700
C1258       C  0.16928259  0.61668241  0.99559607     0.20600
C1259       C  0.15666548  0.64174589  0.99543374    -0.32700
C1260       C  0.16348701  0.66199689  0.01459761     0.01300
C1261       C  0.18216935  0.65527079  0.03521353    -0.24000
C1262       C  0.23314374  0.55522829  0.03601456    -0.28600
C1263       C  0.22885576  0.53689897  0.01458499     0.07000
C1264       C  0.21001897  0.54262796  0.99433014    -0.27300
H1265       H  0.23948780  0.59453070  0.07299490     0.11700
H1266       H  0.21739764  0.63844215  0.07245240     0.12800
H1267       H  0.17249340  0.55849614  0.95894204     0.11900
H1268       H  0.14905165  0.60165960  0.95961295     0.11100
H1269       H  0.14161730  0.64493973  0.98008882     0.16500
H1270       H  0.18721822  0.67010341  0.05065096     0.12400
H1271       H  0.24796538  0.55096184  0.05149841     0.15300
H1272       H  0.20671752  0.52842215  0.97785227     0.15100
C1273       C  0.19937052  0.80642010  0.99509946    -0.17800
C1274       C  0.17946924  0.78679394  0.99814635    -0.20000
C1275       C  0.18632030  0.75972501  0.00211070     0.20700
C1276       C  0.21350790  0.75258181  0.00319777    -0.02900
C1277       C  0.23361135  0.77237189  0.00020941    -0.06000
C1278       C  0.22652212  0.79934246  0.99591221     0.20900
C1279       C  0.26077075  0.76508820  0.00136885     0.19100
C1280       C  0.26765286  0.73801558  0.00501334    -0.17500
C1281       C  0.24777685  0.71835371  0.00699481    -0.19700
C1282       C  0.22065033  0.72551692  0.00618155     0.20600
C1283       C  0.20071539  0.70586905  0.00810140    -0.32700
C1284       C  0.17305994  0.71246705  0.00982374     0.01300
C1285       C  0.16651721  0.73971710  0.00472452    -0.24000
C1286       C  0.24661362  0.81876037  0.99235837    -0.28600
C1287       C  0.27412916  0.81207450  0.99358406     0.07000
C1288       C  0.28063599  0.78488611  0.99896234    -0.27300
H1289       H  0.19351882  0.82713897  0.99198745     0.11700
H1290       H  0.15868255  0.79280213  0.99735953     0.12800
H1291       H  0.28841769  0.73198256  0.00593169     0.11900
H1292       H  0.25363466  0.69753905  0.00943277     0.11100
H1293       H  0.20765931  0.68546929  0.00735085     0.16500
H1294       H  0.14599273  0.74542227  0.00108339     0.12400
H1295       H  0.24057296  0.83921652  0.98861428     0.15300
H1296       H  0.30110909  0.77878586  0.00202100     0.15100
C1297       C  0.25005120  0.08394282  0.08359557    -0.17800
C1298       C  0.24980941  0.06279784  0.10240491    -0.20000
C1299       C  0.26899968  0.04225050  0.10095794     0.20700
C1300       C  0.28845301  0.04297265  0.08022393    -0.02900
C1301       C  0.28820373  0.06384255  0.06078970    -0.06000
C1302       C  0.26907186  0.08460280  0.06255085     0.20900
C1303       C  0.30699352  0.06374564  0.03947469     0.19100
C1304       C  0.32622237  0.04331690  0.03793281    -0.17500
C1305       C  0.32681975  0.02301839  0.05747544    -0.19700
C1306       C  0.30796938  0.02265478  0.07862380     0.20600
C1307       C  0.30836417  0.00225438  0.09812137    -0.32700
C1308       C  0.28920419  0.00110301  0.11930059     0.01300
C1309       C  0.26896161  0.02099634  0.11978385    -0.24000
C1310       C  0.26895884  0.10528079  0.04297211    -0.28600
C1311       C  0.28664886  0.10443153  0.02051362     0.07000
C1312       C  0.30593104  0.08367231  0.01961567    -0.27300
H1313       H  0.23507989  0.09956341  0.08526398     0.11700
H1314       H  0.23469700  0.06262450  0.11822683     0.12800
H1315       H  0.34079251  0.04302527  0.02158383     0.11900
H1316       H  0.34189374  0.00748020  0.05592174     0.11100
H1317       H  0.32368476  0.98690992  0.09687539     0.16500
H1318       H  0.25284877  0.02017350  0.13436834     0.12400
H1319       H  0.25475166  0.12145472  0.04517317     0.15300
H1320       H  0.31981475  0.08262225  0.00268939     0.15100
C1321       C  0.24318725  0.02408791  0.93121775    -0.17800
C1322       C  0.24375264  0.04312320  0.95223284    -0.20000
C1323       C  0.26023797  0.06588139  0.95016734     0.20700
C1324       C  0.27553125  0.06996403  0.92652461    -0.02900
C1325       C  0.27665006  0.04972538  0.90646850    -0.06000
C1326       C  0.26018106  0.02689048  0.90864288     0.20900
C1327       C  0.29509037  0.05184457  0.88496670     0.19100
C1328       C  0.31006247  0.07559595  0.88199536    -0.17500
C1329       C  0.30703606  0.09682494  0.90056837    -0.19700
C1330       C  0.29045092  0.09381088  0.92342099     0.20600
C1331       C  0.28987552  0.11333324  0.94412277    -0.32700
C1332       C  0.27993660  0.10661129  0.97012819     0.01300
C1333       C  0.26305937  0.08372666  0.97198641    -0.24000
C1334       C  0.26165634  0.00681317  0.88873637    -0.28600
C1335       C  0.28196818  0.00703601  0.86857368     0.07000
C1336       C  0.29888917  0.02990162  0.86739112    -0.27300
H1337       H  0.23045047  0.00656553  0.93323889     0.11700
H1338       H  0.23160033  0.03988257  0.97021490     0.12800
H1339       H  0.32408927  0.07775167  0.86531068     0.11900
H1340       H  0.31885967  0.11490383  0.89795047     0.11100
H1341       H  0.29967613  0.13247843  0.94086059     0.16500
H1342       H  0.25289837  0.07898440  0.99084834     0.12400
H1343       H  0.24806897  0.98986027  0.88999780     0.15300
H1344       H  0.31533435  0.03124639  0.85341683     0.15100
C1345       C  0.03710668  0.22501095  0.06161264    -0.17800
C1346       C  0.05587246  0.22667501  0.04065192    -0.20000
C1347       C  0.08031725  0.23984897  0.04500666     0.20700
C1348       C  0.08689603  0.24943700  0.07110101    -0.02900
C1349       C  0.06773124  0.24828404  0.09212256    -0.06000
C1350       C  0.04244671  0.23686077  0.08699372     0.20900
C1351       C  0.07345527  0.25948133  0.11786236     0.19100
C1352       C  0.09908686  0.26996067  0.12289072    -0.17500
C1353       C  0.11839035  0.27049815  0.10212421    -0.19700
C1354       C  0.11221842  0.26097556  0.07588536     0.20600
C1355       C  0.13028690  0.26393931  0.05404660    -0.32700
C1356       C  0.12185764  0.25926144  0.02694168     0.01300
C1357       C  0.09761155  0.24477895  0.02333922    -0.24000
C1358       C  0.02238677  0.23889886  0.10665845    -0.28600
C1359       C  0.02651704  0.25367844  0.13093173     0.07000
C1360       C  0.05303333  0.26122923  0.13749826    -0.27300
H1361       H  0.01792214  0.21571040  0.05753871     0.11700
H1362       H  0.05083555  0.21862508  0.02075424     0.12800
H1363       H  0.10394618  0.27848315  0.14262465     0.11900
H1364       H  0.13773635  0.27939819  0.10627924     0.11100
H1365       H  0.15006876  0.27196496  0.05787777     0.16500
H1366       H  0.09167585  0.23738694  0.00348606     0.12400
H1367       H  0.00299680  0.23020095  0.10228428     0.15300
H1368       H  0.05739575  0.27016653  0.15714997     0.15100
C1369       C  0.03788984  0.30052794  0.93881475    -0.17800
C1370       C  0.05891531  0.30271949  0.95727978    -0.20000
C1371       C  0.08003301  0.28427179  0.95650954     0.20700
C1372       C  0.08014456  0.26350136  0.93693922    -0.02900
C1373       C  0.05856903  0.26095391  0.91860749    -0.06000
C1374       C  0.03753245  0.27966680  0.91954240     0.20900
C1375       C  0.05790458  0.23961299  0.89962420     0.19100
C1376       C  0.07930562  0.22137847  0.89874174    -0.17500
C1377       C  0.10103887  0.22426171  0.91655102    -0.19700
C1378       C  0.10153862  0.24510607  0.93597172     0.20600
C1379       C  0.12247202  0.24729243  0.95505176    -0.32700
C1380       C  0.12131745  0.26665139  0.97626884     0.01300
C1381       C  0.10041789  0.28569991  0.97577672    -0.24000
C1382       C  0.01657385  0.27754900  0.90101250    -0.28600
C1383       C  0.01553904  0.25667908  0.88141334     0.07000
C1384       C  0.03601120  0.23703426  0.88178121    -0.27300
H1385       H  0.02179138  0.31503801  0.93974409     0.11700
H1386       H  0.05858092  0.31876157  0.97228352     0.12800
H1387       H  0.07929761  0.20493377  0.88419405     0.11900
H1388       H  0.11721783  0.20986082  0.91547864     0.11100
H1389       H  0.13872041  0.23308384  0.95390047     0.16500
H1390       H  0.09921468  0.30084852  0.99168066     0.12400
H1391       H  0.00108216  0.29273532  0.90135188     0.15300
H1392       H  0.03543632  0.21991791  0.86818702     0.15100
C1393       C  0.21548176  0.35797126  0.96119645    -0.17800
C1394       C  0.19975639  0.33474954  0.95964020    -0.20000
C1395       C  0.18221912  0.32811496  0.98090692     0.20700
C1396       C  0.18033374  0.34514198  0.00383433    -0.02900
C1397       C  0.19628267  0.36862518  0.00547627    -0.06000
C1398       C  0.21392778  0.37497985  0.98403920     0.20900
C1399       C  0.19473098  0.38558082  0.02860122     0.19100
C1400       C  0.17661211  0.37918770  0.04948563    -0.17500
C1401       C  0.16051605  0.35612326  0.04763595    -0.19700
C1402       C  0.16252533  0.33872285  0.02507626     0.20600
C1403       C  0.14757141  0.31472346  0.02377520    -0.32700
C1404       C  0.15170299  0.29574309  0.00252395     0.01300
C1405       C  0.16734466  0.30421041  0.98003309    -0.24000
C1406       C  0.22980964  0.39815781  0.98579241    -0.28600
C1407       C  0.22881481  0.41506047  0.00888479     0.07000
C1408       C  0.21129348  0.40854146  0.03035640    -0.27300
H1409       H  0.22899479  0.36254900  0.94457718     0.11700
H1410       H  0.20155653  0.32179572  0.94192894     0.12800
H1411       H  0.17494014  0.39198617  0.06731931     0.11900
H1412       H  0.14689102  0.35158532  0.06417006     0.11100
H1413       H  0.13293374  0.31132147  0.03949759     0.16500
H1414       H  0.16953195  0.29092519  0.96259661     0.12400
H1415       H  0.24342824  0.40278446  0.96925461     0.15300
H1416       H  0.21032179  0.42145957  0.04816745     0.15100
C1417       C  0.23595217  0.23936320  0.99457384    -0.17800
C1418       C  0.25559283  0.21975441  0.99142428    -0.20000
C1419       C  0.24889198  0.19242175  0.99308786     0.20700
C1420       C  0.22212462  0.18473529  0.99699397    -0.02900
C1421       C  0.20203786  0.20455679  0.99845094    -0.06000
C1422       C  0.20912931  0.23191432  0.99802316     0.20900
C1423       C  0.17501889  0.19704459  0.00071584     0.19100
C1424       C  0.16838335  0.16962097  0.00231610    -0.17500
C1425       C  0.18845015  0.14995620  0.00198043    -0.19700
C1426       C  0.21544582  0.15733767  0.99930837     0.20600
C1427       C  0.23588450  0.13792845  0.99926334    -0.32700
C1428       C  0.26313852  0.14534833  0.99640553     0.01300
C1429       C  0.26869412  0.17279744  0.99120420    -0.24000
C1430       C  0.18942943  0.25151958  0.00103899    -0.28600
C1431       C  0.16191223  0.24483098  0.00084447     0.07000
C1432       C  0.15519887  0.21706646  0.00116891    -0.27300
H1433       H  0.24168936  0.26037247  0.99388038     0.11700
H1434       H  0.27614176  0.22598411  0.98844886     0.12800
H1435       H  0.14771146  0.16339463  0.00415414     0.11900
H1436       H  0.18284224  0.12897857  0.00368722     0.11100
H1437       H  0.23044599  0.11707009  0.00184973     0.16500
H1438       H  0.28850952  0.17944872  0.98564845     0.12400
H1439       H  0.19627506  0.27191222  0.00357274     0.15300
H1440       H  0.13445781  0.21096221  0.00181696     0.15100
C1441       C  0.39687692  0.35868114  0.05415276    -0.17800
C1442       C  0.37699779  0.37834184  0.05485787    -0.20000
C1443       C  0.36788383  0.39000021  0.03060688     0.20700
C1444       C  0.37885659  0.38187426  0.00541863    -0.02900
C1445       C  0.39885430  0.36207353  0.00470916    -0.06000
C1446       C  0.40789688  0.35043330  0.02918858     0.20900
C1447       C  0.40973765  0.35389348  0.97948355     0.19100
C1448       C  0.40066930  0.36559743  0.95526691    -0.17500
C1449       C  0.38084865  0.38526679  0.95597439    -0.19700
C1450       C  0.36980456  0.39346611  0.98090396     0.20600
C1451       C  0.34979954  0.41299422  0.98170313    -0.32700
C1452       C  0.33873324  0.42109591  0.00668295     0.01300
C1453       C  0.34792110  0.40958059  0.03107500    -0.24000
C1454       C  0.42776672  0.33072102  0.02823793    -0.28600
C1455       C  0.43862095  0.32245367  0.00312132     0.07000
C1456       C  0.42949455  0.33412380  0.97886367    -0.27300
H1457       H  0.40360977  0.34991086  0.07311182     0.11700
H1458       H  0.36872813  0.38440062  0.07435018     0.12800
H1459       H  0.40888934  0.35950789  0.93576625     0.11900
H1460       H  0.37410462  0.39402024  0.93701279     0.11100
H1461       H  0.34286516  0.42186551  0.96285708     0.16500
H1462       H  0.33947312  0.41573326  0.05046885     0.12400
H1463       H  0.43465868  0.32174525  0.04704912     0.15300
H1464       H  0.43780521  0.32788759  0.95943765     0.15100
C1465       C  0.37890428  0.14275476  0.95956074    -0.17800
C1466       C  0.40214422  0.15846836  0.95962049    -0.20000
C1467       C  0.40621474  0.17803733  0.97989267     0.20700
C1468       C  0.38656163  0.18187636  0.00019812    -0.02900
C1469       C  0.36280897  0.16649535  0.99968319    -0.06000
C1470       C  0.35902769  0.14677307  0.97938915     0.20900
C1471       C  0.34307374  0.17054351  0.01975040     0.19100
C1472       C  0.34718836  0.18987981  0.04022555    -0.17500
C1473       C  0.37077750  0.20499194  0.04088849    -0.19700
C1474       C  0.39061371  0.20107643  0.02103427     0.20600
C1475       C  0.41435261  0.21610328  0.02158493    -0.32700
C1476       C  0.43382905  0.21274423  0.00117684     0.01300
C1477       C  0.42954385  0.19381530  0.98025884    -0.24000
C1478       C  0.33537819  0.13155778  0.97906347    -0.28600
C1479       C  0.31397540  0.13749780  0.99703782     0.07000
C1480       C  0.31931825  0.15561166  0.01871583    -0.27300
H1481       H  0.37628125  0.12773850  0.94372314     0.11700
H1482       H  0.41700939  0.15520302  0.94389276     0.12800
H1483       H  0.33211753  0.19337432  0.05569955     0.11900
H1484       H  0.37348739  0.21978719  0.05691826     0.11100
H1485       H  0.41734128  0.23102634  0.03746720     0.16500
H1486       H  0.44446235  0.19124707  0.96443235     0.12400
H1487       H  0.33434148  0.11486131  0.96502800     0.15300
H1488       H  0.30413289  0.15905394  0.03411070     0.15100
C1489       C  0.93977470  0.21341905  0.93547391    -0.17800
C1490       C  0.92149269  0.21501212  0.95712552    -0.20000
C1491       C  0.90588735  0.23817266  0.96098768     0.20700
C1492       C  0.90836060  0.25958275  0.94243132    -0.02900
C1493       C  0.92687721  0.25802078  0.92064635    -0.06000
C1494       C  0.94289493  0.23500269  0.91732953     0.20900
C1495       C  0.93018687  0.28004411  0.90299613     0.19100
C1496       C  0.91453421  0.30313830  0.90673927    -0.17500
C1497       C  0.89622485  0.30464792  0.92817416    -0.19700
C1498       C  0.89319276  0.28308482  0.94627107     0.20600
C1499       C  0.87566740  0.28508677  0.96844122    -0.32700
C1500       C  0.87178362  0.26347554  0.98680099     0.01300
C1501       C  0.88816354  0.24045985  0.98321777    -0.24000
C1502       C  0.96250912  0.23445363  0.89673341    -0.28600
C1503       C  0.96665918  0.25664911  0.87910313     0.07000
C1504       C  0.94996142  0.27935131  0.88274938    -0.27300
H1505       H  0.95185375  0.19549312  0.93324342     0.11700
H1506       H  0.91979837  0.19824141  0.97104685     0.12800
H1507       H  0.91677766  0.32026578  0.89334552     0.11900
H1508       H  0.88464389  0.32286256  0.93079227     0.11100
H1509       H  0.86611318  0.30425910  0.97166826     0.16500
H1510       H  0.88673672  0.22413509  0.99772278     0.12400
H1511       H  0.97556807  0.21715616  0.89513437     0.15300
H1512       H  0.95329739  0.29762324  0.87150656     0.15100
C1513       C  0.95541928  0.30230807  0.07315178    -0.17800
C1514       C  0.93433689  0.30360175  0.05462347    -0.20000
C1515       C  0.91288187  0.28551594  0.05651698     0.20700
C1516       C  0.91200080  0.26678474  0.07789467    -0.02900
C1517       C  0.93271143  0.26635574  0.09737137    -0.06000
C1518       C  0.95490120  0.28349681  0.09434380     0.20900
C1519       C  0.93140527  0.24859425  0.11960372     0.19100
C1520       C  0.90945116  0.23110245  0.12193460    -0.17500
C1521       C  0.88968239  0.23041554  0.10169887    -0.19700
C1522       C  0.89085316  0.24808571  0.07943784     0.20600
C1523       C  0.87163495  0.24706087  0.05847883    -0.32700
C1524       C  0.87218658  0.26587152  0.03687000     0.01300
C1525       C  0.89269673  0.28550393  0.03694405    -0.24000
C1526       C  0.97666153  0.28090105  0.11189582    -0.28600
C1527       C  0.97657357  0.26210269  0.13346000     0.07000
C1528       C  0.95241298  0.24811740  0.13861201    -0.27300
H1529       H  0.97224219  0.31584133  0.07075459     0.11700
H1530       H  0.93522239  0.31818385  0.03829872     0.12800
H1531       H  0.90809189  0.21723557  0.13885417     0.11900
H1532       H  0.87346915  0.21606663  0.10347436     0.11100
H1533       H  0.85674758  0.23135152  0.05914452     0.16500
H1534       H  0.89345215  0.30035673  0.02086037     0.12400
H1535       H  0.99427021  0.29302840  0.10818327     0.15300
H1536       H  0.94978155  0.23644040  0.15691569     0.15100
C1537       C  0.67844489  0.01186096  0.05344950    -0.17800
C1538       C  0.67554997  0.03407843  0.03640026    -0.20000
C1539       C  0.68698175  0.05888542  0.04360893     0.20700
C1540       C  0.70021910  0.06174633  0.06866056    -0.02900
C1541       C  0.70124106  0.03987494  0.08680181    -0.06000
C1542       C  0.69155904  0.01455586  0.07855917     0.20900
C1543       C  0.71208144  0.04327566  0.11302270     0.19100
C1544       C  0.72258622  0.06844874  0.12054690    -0.17500
C1545       C  0.72374338  0.08948052  0.10158506    -0.19700
C1546       C  0.71282862  0.08622959  0.07539212     0.20600
C1547       C  0.71480531  0.10665138  0.05563356    -0.32700
C1548       C  0.70169243  0.10406118  0.03017020     0.01300
C1549       C  0.68602220  0.08060111  0.02578676    -0.24000
C1550       C  0.69557687  0.99226265  0.09529216    -0.28600
C1551       C  0.70760018  0.99486372  0.12131499     0.07000
C1552       C  0.71276376  0.02127219  0.13090078    -0.32100
H1553       H  0.67046319  0.99259618  0.04699856     0.11700
H1554       H  0.66534914  0.03158256  0.01709008     0.12800
H1555       H  0.73101949  0.07148658  0.14064685     0.11900
H1556       H  0.73308163  0.10830031  0.10743749     0.11100
H1557       H  0.72646987  0.12417969  0.06059457     0.16500
H1558       H  0.67446811  0.07846620  0.00723420     0.12400
H1559       H  0.68872245  0.97287677  0.08800968     0.15300
H1560       H  0.71870292  0.02456579  0.15185885     0.15100
C1561       C  0.74752943  0.04695395  0.96201955    -0.17800
C1562       C  0.74875056  0.02715908  0.94176464    -0.20000
C1563       C  0.73324606  0.02944435  0.91809574     0.20700
C1564       C  0.71700884  0.05219553  0.91445305    -0.02900
C1565       C  0.71446828  0.07129982  0.93569267    -0.06000
C1566       C  0.72996679  0.06873704  0.95940723     0.20900
C1567       C  0.69588325  0.09239226  0.93351532     0.19100
C1568       C  0.68169539  0.09548787  0.90900323    -0.17500
C1569       C  0.68567612  0.07760860  0.88714723    -0.19700
C1570       C  0.70285049  0.05546904  0.88990591     0.20600
C1571       C  0.70496142  0.03572579  0.86930047    -0.32700
C1572       C  0.71648486  0.01040257  0.87508495     0.01300
C1573       C  0.73258068  0.00867130  0.89877050    -0.24000
C1574       C  0.72720153  0.08751600  0.98047568    -0.28600
C1575       C  0.70707354  0.10758551  0.98002244     0.07000
C1576       C  0.69135059  0.10952774  0.95602959    -0.27300
H1577       H  0.75956421  0.04468041  0.98019768     0.11700
H1578       H  0.76156054  0.00989327  0.94477108     0.12800
H1579       H  0.66750925  0.11174298  0.90672385     0.11900
H1580       H  0.67438553  0.08039642  0.86855758     0.11100
H1581       H  0.69493694  0.03885755  0.85002906     0.16500
H1582       H  0.74392596  0.99062636  0.90287021     0.12400
H1583       H  0.73991862  0.08570614  0.99824183     0.15300
H1584       H  0.67540976  0.12388597  0.95434057     0.15100
C1585       C  0.61926124  0.20687378  0.96106195    -0.17800
C1586       C  0.64396905  0.19399157  0.96346492    -0.20000
C1587       C  0.64852370  0.17566458  0.98461680     0.20700
C1588       C  0.62804331  0.17051856  0.00366574    -0.02900
C1589       C  0.60333030  0.18396471  0.00165170    -0.06000
C1590       C  0.59886118  0.20203686  0.98007533     0.20900
C1591       C  0.58326318  0.17959241  0.02142300     0.19100
C1592       C  0.58792820  0.16154601  0.04276159    -0.17500
C1593       C  0.61221114  0.14783839  0.04441566    -0.19700
C1594       C  0.63230938  0.15213361  0.02488810     0.20600
C1595       C  0.65641920  0.13802338  0.02613263    -0.32700
C1596       C  0.67682822  0.14167992  0.00630129     0.01300
C1597       C  0.67301303  0.16207993  0.98673961    -0.24000
C1598       C  0.57439179  0.21556538  0.97837605    -0.28600
C1599       C  0.55476096  0.21205669  0.99856180     0.07000
C1600       C  0.55919366  0.19386531  0.01988993    -0.27300
H1601       H  0.61620340  0.22084723  0.94448010     0.11700
H1602       H  0.65943113  0.19815464  0.94859372     0.12800
H1603       H  0.57279626  0.15801163  0.05815227     0.11900
H1604       H  0.61526212  0.13383473  0.06097707     0.11100
H1605       H  0.65877157  0.12419092  0.04286159     0.16500
H1606       H  0.68879974  0.16641393  0.97225481     0.12400
H1607       H  0.57120269  0.22996350  0.96217361     0.15300
H1608       H  0.54410177  0.19121750  0.03552851     0.15100
C1609       C  0.77213070  0.22122719  0.05478185    -0.17800
C1610       C  0.75108744  0.20243812  0.05370817    -0.20000
C1611       C  0.74932654  0.18376456  0.03215740     0.20700
C1612       C  0.76912723  0.18415715  0.01171400    -0.02900
C1613       C  0.79007690  0.20330895  0.01257163    -0.06000
C1614       C  0.79168956  0.22194967  0.03416196     0.20900
C1615       C  0.80894134  0.20423744  0.99127608     0.19100
C1616       C  0.80717593  0.18588164  0.96962762    -0.17500
C1617       C  0.78681213  0.16679437  0.96899727    -0.19700
C1618       C  0.76767014  0.16588828  0.98986341     0.20600
C1619       C  0.74695502  0.14714698  0.98867892    -0.32700
C1620       C  0.72695811  0.14550691  0.00914181     0.01300
C1621       C  0.72809215  0.16496301  0.03041962    -0.24000
C1622       C  0.81247058  0.24121900  0.03435498    -0.28600
C1623       C  0.83176696  0.24235583  0.01308096     0.07000
C1624       C  0.82894280  0.22385697  0.99133598    -0.27300
H1625       H  0.77292458  0.23539521  0.07158965     0.11700
H1626       H  0.73617652  0.20254784  0.06972573     0.12800
H1627       H  0.82153673  0.18632272  0.95309138     0.11900
H1628       H  0.78590060  0.15285792  0.95198949     0.11100
H1629       H  0.74658274  0.13446572  0.97081868     0.16500
H1630       H  0.71233892  0.16552492  0.04557534     0.12400
H1631       H  0.81339715  0.25579907  0.05080228     0.15300
H1632       H  0.84143635  0.22496584  0.97347133     0.15100
C1633       C  0.59239634  0.36181360  0.94912531    -0.17800
C1634       C  0.61236564  0.38155426  0.94883065    -0.20000
C1635       C  0.62182402  0.39273111  0.97331046     0.20700
C1636       C  0.61069068  0.38429682  0.99828900    -0.02900
C1637       C  0.59057550  0.36433928  0.99858899    -0.06000
C1638       C  0.58154860  0.35289556  0.97390346     0.20900
C1639       C  0.57976956  0.35560920  0.02361843     0.19100
C1640       C  0.58872185  0.36729800  0.04803335    -0.17500
C1641       C  0.60859995  0.38708854  0.04773321    -0.19700
C1642       C  0.61991656  0.39549663  0.02301891     0.20600
C1643       C  0.64057674  0.41458025  0.02268117    -0.32700
C1644       C  0.65228468  0.42262878  0.99794479     0.01300
C1645       C  0.64248406  0.41186461  0.97328838    -0.24000
C1646       C  0.56203010  0.33258221  0.97444873    -0.28600
C1647       C  0.55146318  0.32340345  0.99937692     0.07000
C1648       C  0.56037243  0.33520315  0.02385221    -0.27300
H1649       H  0.58561351  0.35333297  0.92996889     0.11700
H1650       H  0.62060304  0.38788633  0.92945626     0.12800
H1651       H  0.58051479  0.36095051  0.06741355     0.11900
H1652       H  0.61535065  0.39560117  0.06688630     0.11100
H1653       H  0.64774495  0.42291771  0.04176418     0.16500
H1654       H  0.65118001  0.41805165  0.95406389     0.12400
H1655       H  0.55525957  0.32376294  0.95543473     0.15300
H1656       H  0.55223644  0.32850437  0.04315156     0.15100
C1657       C  0.82016664  0.35306043  0.05271743    -0.17800
C1658       C  0.80617429  0.37724429  0.05026537    -0.20000
C1659       C  0.79272656  0.38344511  0.02602070     0.20700
C1660       C  0.79332006  0.36507868  0.00405809    -0.02900
C1661       C  0.80690191  0.34037192  0.00680298    -0.06000
C1662       C  0.82068158  0.33451117  0.03108536     0.20900
C1663       C  0.80637517  0.32142789  0.98540144     0.19100
C1664       C  0.79311292  0.32768143  0.96106252    -0.17500
C1665       C  0.78029416  0.35247316  0.95803129    -0.19700
C1666       C  0.78000808  0.37119427  0.97951264     0.20600
C1667       C  0.76598117  0.39552466  0.97719271    -0.32700
C1668       C  0.76439251  0.41343394  0.99941021     0.01300
C1669       C  0.77817548  0.40738068  0.02360646    -0.24000
C1670       C  0.83500084  0.31039514  0.03326146    -0.28600
C1671       C  0.83576465  0.29167508  0.01144775     0.07000
C1672       C  0.81952446  0.29677003  0.98847852    -0.27300
H1673       H  0.83054997  0.34884222  0.07157645     0.11700
H1674       H  0.80587832  0.39111321  0.06734738     0.12800
H1675       H  0.79280709  0.31345763  0.94428275     0.11900
H1676       H  0.77021626  0.35681809  0.93903324     0.11100
H1677       H  0.75528786  0.39991652  0.95854622     0.16500
H1678       H  0.77719646  0.42111119  0.04079255     0.12400
H1679       H  0.84532693  0.30640348  0.05215429     0.15300
H1680       H  0.81876779  0.28213096  0.97206322     0.15100
C1681       C  0.75088518  0.89547267  0.88772868    -0.17800
C1682       C  0.75093860  0.87398374  0.90627983    -0.20000
C1683       C  0.73171891  0.87243804  0.92716716     0.20700
C1684       C  0.71235906  0.89289306  0.92925021    -0.02900
C1685       C  0.71283435  0.91497425  0.91110288    -0.06000
C1686       C  0.73198632  0.91624925  0.88999750     0.20900
C1687       C  0.69414859  0.93583284  0.91425316     0.19100
C1688       C  0.67485924  0.93443086  0.93495203    -0.17500
C1689       C  0.67392563  0.91232046  0.95233512    -0.19700
C1690       C  0.69261473  0.89151870  0.94966811     0.20600
C1691       C  0.69209019  0.86971504  0.96753532    -0.32700
C1692       C  0.71196632  0.84953109  0.96690284     0.01300
C1693       C  0.73180444  0.85119283  0.94627196    -0.24000
C1694       C  0.73189246  0.93822689  0.87170274    -0.28600
C1695       C  0.71352719  0.95964776  0.87508423     0.07000
C1696       C  0.69495060  0.95788235  0.89678524    -0.27300
H1697       H  0.76585923  0.89598952  0.87178238     0.11700
H1698       H  0.76600414  0.85850212  0.90421906     0.12800
H1699       H  0.66036383  0.95038539  0.93759848     0.11900
H1700       H  0.65876571  0.91165213  0.96810211     0.11100
H1701       H  0.67666147  0.86895424  0.98304579     0.16500
H1702       H  0.74765989  0.83652717  0.94516415     0.12400
H1703       H  0.74609666  0.93841455  0.85510582     0.15300
H1704       H  0.68082279  0.97403783  0.90008911     0.15100
C1705       C  0.67533957  0.88286466  0.10153023    -0.17800
C1706       C  0.67433014  0.86476308  0.07965296    -0.20000
C1707       C  0.69414613  0.86514257  0.05935922     0.20700
C1708       C  0.71526925  0.88376712  0.06131784    -0.02900
C1709       C  0.71571249  0.90275035  0.08282920    -0.06000
C1710       C  0.69567196  0.90228140  0.10300945     0.20900
C1711       C  0.73582915  0.92257559  0.08375491     0.19100
C1712       C  0.75616140  0.92237928  0.06403838    -0.17500
C1713       C  0.75603671  0.90320462  0.04306886    -0.19700
C1714       C  0.73539525  0.88412023  0.04127146     0.20600
C1715       C  0.73431307  0.86576292  0.01950499    -0.32700
C1716       C  0.71321105  0.84681886  0.01688548     0.01300
C1717       C  0.69274332  0.84761208  0.03690536    -0.24000
C1718       C  0.69556062  0.92194130  0.12360084    -0.28600
C1719       C  0.71327126  0.94412067  0.12251918     0.07000
C1720       C  0.73448247  0.94303647  0.10348029    -0.27300
H1721       H  0.65968358  0.88227581  0.11678545     0.11700
H1722       H  0.65798325  0.85048739  0.07857394     0.12800
H1723       H  0.77189277  0.93736502  0.06453849     0.11900
H1724       H  0.77176957  0.90369125  0.02789637     0.11100
H1725       H  0.74981914  0.86639151  0.00407272     0.16500
H1726       H  0.67494119  0.83558017  0.03504935     0.12400
H1727       H  0.68085264  0.92029400  0.13963324     0.15300
H1728       H  0.74910140  0.95914135  0.10309379     0.15100
C1729       C  0.95242095  0.63401899  0.92587941    -0.17800
C1730       C  0.93027634  0.63405520  0.94327029    -0.20000
C1731       C  0.91135696  0.65480431  0.94190430     0.20700
C1732       C  0.91397564  0.67490108  0.92199324    -0.02900
C1733       C  0.93603580  0.67448854  0.90400945    -0.06000
C1734       C  0.95575096  0.65450946  0.90659921     0.20900
C1735       C  0.93884131  0.69457968  0.88408952     0.19100
C1736       C  0.91902463  0.71438398  0.88167712    -0.17500
C1737       C  0.89774183  0.71544405  0.90023486    -0.19700
C1738       C  0.89541134  0.69619260  0.92096556     0.20600
C1739       C  0.87589451  0.69873490  0.94153220    -0.32700
C1740       C  0.87408277  0.67957590  0.96268551     0.01300
C1741       C  0.89091865  0.65668609  0.96124717    -0.24000
C1742       C  0.97921665  0.65630626  0.89110871    -0.28600
C1743       C  0.98399077  0.67837828  0.87351503     0.07000
C1744       C  0.96200393  0.69537766  0.86788920    -0.27300
H1745       H  0.96733199  0.61841596  0.92805581     0.11700
H1746       H  0.92852229  0.61845029  0.95851850     0.12800
H1747       H  0.92071533  0.72988919  0.86632077     0.11900
H1748       H  0.88347831  0.73172543  0.89878323     0.11100
H1749       H  0.86350564  0.71649895  0.94174620     0.16500
H1750       H  0.88989488  0.64168268  0.97718675     0.12400
H1751       H  0.99489876  0.64167316  0.89438345     0.15300
H1752       H  0.96264636  0.70974461  0.85152977     0.15100
C1753       C  0.79851941  0.61373131  0.94704741    -0.17800
C1754       C  0.78432524  0.58957653  0.94765724    -0.20000
C1755       C  0.78382417  0.57403291  0.97140852     0.20700
C1756       C  0.79757175  0.58295986  0.99483218    -0.02900
C1757       C  0.81185039  0.60746213  0.99417800    -0.06000
C1758       C  0.81230550  0.62278292  0.97022723     0.20900
C1759       C  0.82635184  0.61615177  0.01711597     0.19100
C1760       C  0.82610076  0.60033357  0.04081132    -0.17500
C1761       C  0.81145325  0.57629814  0.04172032    -0.19700
C1762       C  0.79714361  0.56738717  0.01880410     0.20600
C1763       C  0.78225980  0.54336390  0.01941465    -0.32700
C1764       C  0.76828043  0.53456609  0.99613286     0.01300
C1765       C  0.76957237  0.54986161  0.97213784    -0.24000
C1766       C  0.82699333  0.64664808  0.96942641    -0.28600
C1767       C  0.84087509  0.65693525  0.99244029     0.07000
C1768       C  0.84118361  0.64022701  0.01591990    -0.27300
H1769       H  0.79870157  0.62535948  0.92842068     0.11700
H1770       H  0.77377659  0.58303186  0.92953199     0.12800
H1771       H  0.83712666  0.60662575  0.05872554     0.11900
H1772       H  0.81143047  0.56461794  0.06030850     0.11100
H1773       H  0.78132007  0.53171090  0.03801021     0.16500
H1774       H  0.75863409  0.54347413  0.95418116     0.12400
H1775       H  0.82922714  0.65592002  0.94975819     0.15300
H1776       H  0.85347994  0.64459483  0.03324150     0.15100
C1777       C  0.97119086  0.69631508  0.04238976    -0.17800
C1778       C  0.95197093  0.69671009  0.02184973    -0.20000
C1779       C  0.92472716  0.69483857  0.02836318     0.20700
C1780       C  0.91669233  0.69349423  0.05574829    -0.02900
C1781       C  0.93613175  0.69418051  0.07664041    -0.06000
C1782       C  0.96345559  0.69493555  0.06983046     0.20900
C1783       C  0.92828544  0.69347878  0.10419865     0.19100
C1784       C  0.90091880  0.69203024  0.11055080    -0.17500
C1785       C  0.88164993  0.69092068  0.08977019    -0.19700
C1786       C  0.88933883  0.69147755  0.06221279     0.20600
C1787       C  0.87031745  0.68945734  0.04104534    -0.32700
C1788       C  0.87815122  0.68851627  0.01318381     0.01300
C1789       C  0.90561059  0.69371610  0.00771658    -0.24000
C1790       C  0.98272627  0.69367988  0.09038842    -0.28600
C1791       C  0.97553806  0.69366065  0.11830983     0.07000
C1792       C  0.94793346  0.69377499  0.12479104    -0.27300
H1793       H  0.99212876  0.69708787  0.03679631     0.11700
H1794       H  0.95846987  0.69772571  0.00079950     0.12800
H1795       H  0.89441892  0.69138516  0.13160307     0.11900
H1796       H  0.86074075  0.68938223  0.09526859     0.11100
H1797       H  0.84929954  0.68812801  0.04621667     0.16500
H1798       H  0.91286811  0.69674640  0.98722880     0.12400
H1799       H  0.00329346  0.69177463  0.08405421     0.15300
H1800       H  0.94179273  0.69320320  0.14595451     0.15100
C1801       C  0.75764124  0.74965635  0.94706100    -0.17800
C1802       C  0.77742552  0.72973943  0.94686728    -0.20000
C1803       C  0.79756500  0.72954408  0.96682151     0.20700
C1804       C  0.79781448  0.74972345  0.98690928    -0.02900
C1805       C  0.77758602  0.76961247  0.98738012    -0.06000
C1806       C  0.75745034  0.76965094  0.96734345     0.20900
C1807       C  0.77734012  0.78916990  0.00815309     0.19100
C1808       C  0.79794328  0.78947969  0.02756034    -0.17500
C1809       C  0.81843306  0.77039549  0.02649146    -0.19700
C1810       C  0.81834541  0.75015998  0.00644379     0.20600
C1811       C  0.83825967  0.73023863  0.00598783    -0.32700
C1812       C  0.83744622  0.70823552  0.98737323     0.01300
C1813       C  0.81722066  0.70935312  0.96706232    -0.24000
C1814       C  0.73737167  0.78945046  0.96807247    -0.28600
C1815       C  0.73617876  0.80885929  0.98926622     0.07000
C1816       C  0.75637254  0.80784452  0.00954079    -0.27300
H1817       H  0.74232048  0.74924321  0.93149252     0.11700
H1818       H  0.77687595  0.71437627  0.93116230     0.12800
H1819       H  0.79824374  0.80453137  0.04358219     0.11900
H1820       H  0.83406263  0.77113802  0.04172917     0.11100
H1821       H  0.85421954  0.73244938  0.02052284     0.16500
H1822       H  0.81680817  0.69523142  0.95055187     0.12400
H1823       H  0.72212499  0.78940275  0.95241784     0.15300
H1824       H  0.75603365  0.82104334  0.02700071     0.15100
C1825       C  0.62137858  0.57793844  0.04758086    -0.17800
C1826       C  0.60088006  0.59706345  0.04773619    -0.20000
C1827       C  0.59003419  0.60637187  0.02315576     0.20700
C1828       C  0.60064473  0.59696310  0.99819703    -0.02900
C1829       C  0.62130709  0.57769417  0.99803629    -0.06000
C1830       C  0.63139140  0.56780778  0.02284674     0.20900
C1831       C  0.63140536  0.56787205  0.97302815     0.19100
C1832       C  0.62147242  0.57808394  0.94846211    -0.17500
C1833       C  0.60107440  0.59720209  0.94862053    -0.19700
C1834       C  0.59023848  0.60635796  0.97334158     0.20600
C1835       C  0.56887409  0.62441212  0.97353260    -0.32700
C1836       C  0.55753164  0.63334644  0.99821563     0.01300
C1837       C  0.56854235  0.62456776  0.02302827    -0.24000
C1838       C  0.65085614  0.54754955  0.02247374    -0.28600
C1839       C  0.66029539  0.53690523  0.99760208     0.07000
C1840       C  0.65081736  0.54759622  0.97297433    -0.27300
H1841       H  0.62908991  0.57072862  0.06682761     0.11700
H1842       H  0.59321329  0.60423999  0.06709265     0.12800
H1843       H  0.62917074  0.57095181  0.92910046     0.11900
H1844       H  0.59343820  0.60448197  0.92936852     0.11100
H1845       H  0.56097634  0.63138431  0.95426422     0.16500
H1846       H  0.56030425  0.63169325  0.04216831     0.12400
H1847       H  0.65823750  0.53970753  0.04160701     0.15300
H1848       H  0.65815727  0.53980494  0.95371560     0.15100
C1849       C  0.39049941  0.59878466  0.95230513    -0.17800
C1850       C  0.37027457  0.57931001  0.95415034    -0.20000
C1851       C  0.36411225  0.56726909  0.97925468     0.20700
C1852       C  0.37834698  0.57510694  0.00274890    -0.02900
C1853       C  0.39870910  0.59487541  0.00090227    -0.06000
C1854       C  0.40494620  0.60668396  0.97553997     0.20900
C1855       C  0.41287869  0.60271672  0.02444594     0.19100
C1856       C  0.40666830  0.59073634  0.04953792    -0.17500
C1857       C  0.38665289  0.57111468  0.05133388    -0.19700
C1858       C  0.37233757  0.56313718  0.02809658     0.20600
C1859       C  0.35222375  0.54337084  0.02979713    -0.32700
C1860       C  0.33795395  0.53527925  0.00645931     0.01300
C1861       C  0.34407626  0.54747636  0.98124766    -0.24000
C1862       C  0.42553454  0.62606276  0.97388560    -0.28600
C1863       C  0.43981858  0.63404758  0.99735869     0.07000
C1864       C  0.43310959  0.62227487  0.02255297    -0.27300
H1865       H  0.39487973  0.60763089  0.93265672     0.11700
H1866       H  0.35951223  0.57358030  0.93588008     0.12800
H1867       H  0.41738220  0.59649187  0.06782588     0.11900
H1868       H  0.38236936  0.56216312  0.07095499     0.11100
H1869       H  0.34783292  0.53415975  0.04927870     0.16500
H1870       H  0.33327655  0.54154637  0.96305747     0.12400
H1871       H  0.43032591  0.63500795  0.95437388     0.15300
H1872       H  0.44390280  0.62809132  0.04078338     0.15100
C1873       C  0.38396987  0.75913156  0.94418580    -0.17800
C1874       C  0.36026645  0.77403245  0.94471451    -0.20000
C1875       C  0.35521612  0.79224296  0.96602576     0.20700
C1876       C  0.37481671  0.79643682  0.98617830    -0.02900
C1877       C  0.39846899  0.78097350  0.98604121    -0.06000
C1878       C  0.40282708  0.76191045  0.96517807     0.20900
C1879       C  0.41727171  0.78396072  0.00727488     0.19100
C1880       C  0.41322339  0.80386137  0.02721172    -0.17500
C1881       C  0.39030090  0.81995542  0.02665747    -0.19700
C1882       C  0.37059954  0.81578833  0.00670567     0.20600
C1883       C  0.34644485  0.83005934  0.00747978    -0.32700
C1884       C  0.32472655  0.82277758  0.99042525     0.01300
C1885       C  0.33049793  0.80543450  0.96820453    -0.24000
C1886       C  0.42542662  0.74529984  0.96621816    -0.28600
C1887       C  0.44324501  0.74677756  0.98837187     0.07000
C1888       C  0.43932445  0.76652798  0.00856922    -0.27300
H1889       H  0.38714025  0.74478318  0.92783376     0.11700
H1890       H  0.34560324  0.77083185  0.92880561     0.12800
H1891       H  0.42760144  0.80673579  0.04345079     0.11900
H1892       H  0.38745250  0.83489181  0.04252664     0.11100
H1893       H  0.34507544  0.84673673  0.02149469     0.16500
H1894       H  0.31509092  0.80126440  0.95326093     0.12400
H1895       H  0.42836329  0.73020683  0.95049967     0.15300
H1896       H  0.45324003  0.76809690  0.02540944     0.15100
C1897       C  0.62405872  0.75061373  0.03650387    -0.17800
C1898       C  0.64898722  0.76347091  0.03510577    -0.20000
C1899       C  0.65617802  0.77848582  0.01203692     0.20700
C1900       C  0.63821300  0.78008887  0.99001182    -0.02900
C1901       C  0.61340246  0.76634367  0.99101298    -0.06000
C1902       C  0.60608990  0.75193130  0.01456957     0.20900
C1903       C  0.59595578  0.76704741  0.96843817     0.19100
C1904       C  0.60347519  0.78149773  0.94513746    -0.17500
C1905       C  0.62766151  0.79569470  0.94447540    -0.19700
C1906       C  0.64501317  0.79540653  0.96695226     0.20600
C1907       C  0.66872625  0.81061521  0.96689350    -0.32700
C1908       C  0.68632255  0.81072077  0.98956905     0.01300
C1909       C  0.68066067  0.79247797  0.01092474    -0.24000
C1910       C  0.58115109  0.73880027  0.01560261    -0.28600
C1911       C  0.56372987  0.73904969  0.99300886     0.07000
C1912       C  0.57143672  0.75315487  0.96945198    -0.27300
H1913       H  0.61889694  0.73949446  0.05471177     0.11700
H1914       H  0.66244387  0.76209062  0.05231341     0.12800
H1915       H  0.59047190  0.78212081  0.92752254     0.11900
H1916       H  0.63270106  0.80709588  0.92641182     0.11100
H1917       H  0.67327714  0.82219833  0.94887384     0.16500
H1918       H  0.69457463  0.79078633  0.02773761     0.12400
H1919       H  0.57571579  0.72756973  0.03367334     0.15300
H1920       H  0.55832229  0.75333654  0.95189627     0.15100
loop_ 
_geom_bond_atom_site_label_1 
_geom_bond_atom_site_label_2 
_geom_bond_distance 
_geom_bond_site_symmetry_2 
_ccdc_geom_bond_type 
O1           Ni9   1.907       .  S
O1           C11   1.280       .  A
O2           Ni9   1.910       .  S
O2           C12   1.279       .  A
O3           Ni9   1.934       .  S
O3           C13   1.285       .  A
O4           Ni9   1.936       .  S
O4           C14   1.285       .  A
O5          Ni10   1.927       .  S
O5           C14   1.284   1_554  A
O6          Ni10   1.922       .  S
O6           C13   1.282   1_554  A
O7          Ni10   1.933       .  S
O7           C12   1.285   1_554  A
O8          Ni10   1.927       .  S
O8           C11   1.283   1_554  A
Ni9         Ni10   2.384   1_556  S
C11        C1836   1.483       .  S
C12        C1887   1.483       .  S
C13        C1911   1.491       .  S
C14        C1863   1.497       .  S
C15        C1740   1.559       .  S
C15        C1767   1.576       .  S
C15        C1788   1.585   1_556  S
C15        C1812   1.582       .  S
C16        C1692   1.562       .  S
C16        C1716   1.570   1_556  S
C16        C1815   1.563       .  S
C16        C1908   1.567       .  S
O17         Ni25   1.910       .  S
O17          C27   1.281       .  A
O18         Ni25   1.912       .  S
O18          C28   1.280       .  A
O19         Ni25   1.923       .  S
O19          C29   1.284       .  A
O20         Ni25   1.927       .  S
O20          C30   1.284       .  A
O21         Ni26   1.913       .  S
O21          C30   1.281   1_554  A
O22         Ni26   1.910       .  S
O22          C29   1.280   1_554  A
O23         Ni26   1.924       .  S
O23          C28   1.284   1_554  A
O24         Ni26   1.921       .  S
O24          C27   1.282   1_554  A
Ni25        Ni26   2.386   1_556  S
C27        C1764   1.479       .  S
C28        C1644   1.483       .  S
C29        C1839   1.482       .  S
C30        C1668   1.483       .  S
C31        C1548   1.565       .  S
C31        C1575   1.575   1_554  S
C31        C1596   1.557       .  S
C31        C1620   1.569       .  S
C32        C1500   1.571   1_554  S
C32        C1524   1.554       .  S
C32        C1623   1.560       .  S
C32        C1671   1.554       .  S
O33         Ni41   1.920       .  S
O33          C43   1.282       .  A
O34         Ni41   1.924       .  S
O34          C44   1.284   1_554  A
O35         Ni41   1.904       .  S
O35          C45   1.279       .  A
O36         Ni41   1.913       .  S
O36          C46   1.281   1_554  A
O37         Ni42   1.914       .  S
O37          C46   1.281       .  A
O38         Ni42   1.911       .  S
O38          C45   1.281   1_556  A
O39         Ni42   1.917       .  S
O39          C44   1.281       .  A
O40         Ni42   1.921       .  S
O40          C43   1.282   1_556  A
Ni41        Ni42   2.388   1_554  S
C43        C1476   1.479       .  S
C44        C1647   1.485       .  S
C45        C1455   1.471       .  S
C46        C1599   1.472       .  S
C47        C1356   1.561       .  S
C47        C1380   1.553   1_554  S
C47        C1404   1.570       .  S
C47        C1431   1.561       .  S
C48        C1311   1.551   1_556  S
C48        C1332   1.552       .  S
C48        C1428   1.560       .  S
C48        C1479   1.567       .  S
C49        C1215   1.581       .  S
C49        C1239   1.565   1_554  S
C49        C1260   1.563       .  S
C49        C1284   1.579       .  S
C50        C1164   1.550       .  S
C50        C1188   1.559   1_556  S
C50        C1287   1.560       .  S
C50        C1884   1.568       .  S
O51         Ni59   1.896       .  S
O51          C61   1.277       .  A
O52         Ni59   1.895       .  S
O52          C62   1.277       .  A
O53         Ni59   1.941       .  S
O53          C63   1.288       .  A
O54         Ni59   1.943       .  S
O54          C64   1.287       .  A
O55         Ni60   1.909       .  S
O55          C64   1.280   1_556  A
O56         Ni60   1.913       .  S
O56          C63   1.280   1_556  A
O57         Ni60   1.915       .  S
O57          C62   1.283   1_556  A
O58         Ni60   1.919       .  S
O58          C61   1.282   1_556  A
Ni59        Ni60   2.387   1_554  S
C61        C1263   1.466       .  S
C62        C1452   1.470       .  S
C63        C1860   1.493       .  S
C64        C1407   1.488       .  S
O65         Ni73   1.907       .  S
O65          C75   1.279       .  A
O66         Ni73   1.905       .  S
O66          C76   1.279       .  A
O67         Ni73   1.917       .  S
O67          C77   1.281       .  A
O68         Ni73   1.919       .  S
O68          C78   1.283       .  A
O69         Ni74   1.922       .  S
O69          C78   1.281   1_545  A
O70         Ni74   1.914       .  S
O70          C77   1.282   1_545  A
O71         Ni74   1.922       .  S
O71          C76   1.283   1_545  A
O72         Ni74   1.929       .  S
O72          C75   1.283   1_545  A
Ni73        Ni74   2.387   1_565  S
C75        C1119   1.476       .  S
C76        C1095   1.478       .  S
C77        C1068   1.480       .  S
C78        C1140   1.482       .  S
C79         C972   1.571       .  S
C79         C996   1.567       .  S
C79        C1023   1.553       .  S
C79        C1044   1.573       .  S
C80        C1047   1.572       .  S
C80        C1116   1.570       .  S
C80        C1572   1.565   1_565  S
C80        C1695   1.560       .  S
O81         Ni89   1.918       .  S
O81          C91   1.282       .  A
O82         Ni89   1.918       .  S
O82          C92   1.281       .  A
O83         Ni89   1.918       .  S
O83          C93   1.283       .  A
O84         Ni89   1.928       .  S
O84          C94   1.283       .  A
O85         Ni90   1.911       .  S
O85          C94   1.281       .  A
O86         Ni90   1.905       .  S
O86          C93   1.279       .  A
O87         Ni90   1.922       .  S
O87          C92   1.283       .  A
O88         Ni90   1.925       .  S
O88          C91   1.283       .  A
Ni89        Ni90   2.387       .  S
C91         C948   1.485       .  S
C92        C1071   1.483       .  S
C93         C924   1.475       .  S
C94         C999   1.479       .  S
C95         C828   1.552       .  S
C95         C852   1.559       .  S
C95         C879   1.549       .  S
C95         C900   1.553       .  S
C96         C903   1.550       .  S
C96        C1143   1.561       .  S
C96        C1167   1.564       .  S
C96        C1335   1.561   1_565  S
O97        Ni105   1.910       .  S
O97         C107   1.280       .  A
O98        Ni105   1.902       .  S
O98         C108   1.279       .  A
O99        Ni105   1.908       .  S
O99         C109   1.280       .  A
O100       Ni105   1.910       .  S
O100        C110   1.280       .  A
O101       Ni106   1.924   1_565  S
O101        C110   1.283       .  A
O102       Ni106   1.920       .  S
O102        C109   1.282   1_545  A
O103       Ni106   1.913   1_565  S
O103        C108   1.281       .  A
O104       Ni106   1.921   1_565  S
O104        C107   1.283       .  A
Ni105      Ni106   2.387   1_565  S
C107        C876   1.481       .  S
C108        C780   1.471       .  S
C109       C1092   1.478       .  S
C110        C804   1.481       .  S
C111        C732   1.554       .  S
C111        C756   1.552       .  S
C111       C1191   1.564       .  S
C111       C1308   1.558   1_565  S
C112        C684   1.544       .  S
C112        C711   1.559       .  S
C112        C759   1.549       .  S
C112        C807   1.553       .  S
C113        C636   1.553       .  S
C113        C660   1.555       .  S
C113       C1551   1.554       .  S
C113       C1719   1.557       .  S
C114        C588   1.554       .  S
C114        C612   1.559       .  S
C114        C663   1.553       .  S
C114        C951   1.560       .  S
O115       Ni123   1.912       .  S
O115        C125   1.281       .  A
O116       Ni123   1.912       .  S
O116        C126   1.281       .  A
O117       Ni123   1.909       .  S
O117        C127   1.280       .  A
O118       Ni123   1.914       .  S
O118        C128   1.280       .  A
O119       Ni124   1.906       .  S
O119        C128   1.278       .  A
O120       Ni124   1.904       .  S
O120        C127   1.280       .  A
O121       Ni124   1.911       .  S
O121        C126   1.281       .  A
O122       Ni124   1.917       .  S
O122        C125   1.282       .  A
Ni123      Ni124   2.390       .  S
C125        C735   1.476       .  S
C126        C927   1.475       .  S
C127        C783   1.470       .  S
C128        C639   1.458       .  S
O129       Ni137   1.914       .  S
O129        C139   1.281   1_655  A
O130       Ni137   1.921       .  S
O130        C140   1.283   1_655  A
O131       Ni137   1.919       .  S
O131        C141   1.283   1_655  A
O132       Ni137   1.915       .  S
O132        C142   1.281       .  A
O133       Ni138   1.911       .  S
O133        C142   1.281   1_455  A
O134       Ni138   1.918       .  S
O134        C141   1.280       .  A
O135       Ni138   1.927       .  S
O135        C140   1.283       .  A
O136       Ni138   1.928       .  S
O136        C139   1.284       .  A
Ni137      Ni138   2.387   1_655  S
C139        C516   1.487       .  S
C140        C564   1.488       .  S
C141        C540   1.478       .  S
C142        C492   1.476       .  S
C143        C447   1.574       .  S
C143        C471   1.568   1_655  S
C143        C855   1.563   1_655  S
C143        C975   1.580       .  S
C144        C468   1.564       .  S
C144        C543   1.555       .  S
C144       C1236   1.566       .  S
C144       C1743   1.570   1_455  S
O145       Ni153   1.918       .  S
O145        C155   1.281       .  A
O146       Ni153   1.918       .  S
O146        C156   1.282       .  A
O147       Ni153   1.930       .  S
O147        C157   1.285       .  A
O148       Ni153   1.937       .  S
O148        C158   1.285       .  A
O149       Ni154   1.918       .  S
O149        C158   1.282   1_455  A
O150       Ni154   1.917       .  S
O150        C157   1.281   1_455  A
O151       Ni154   1.930       .  S
O151        C156   1.284   1_455  A
O152       Ni154   1.932       .  S
O152        C155   1.285   1_455  A
Ni153      Ni154   2.384   1_655  S
C155        C444   1.486       .  S
C156        C396   1.490       .  S
C157        C519   1.490       .  S
C158        C420   1.493       .  S
C159        C348   1.562       .  S
C159        C372   1.546       .  S
C159       C1212   1.556   1_655  S
C159       C1791   1.555       .  S
C160        C375   1.582       .  S
C160        C423   1.580       .  S
C160        C591   1.563   1_455  S
C160        C708   1.573       .  S
O161       Ni169   1.913       .  S
O161        C171   1.280       .  A
O162       Ni169   1.919       .  S
O162        C172   1.282       .  A
O163       Ni169   1.925       .  S
O163        C173   1.283       .  A
O164       Ni169   1.924       .  S
O164        C174   1.283       .  A
O165       Ni170   1.921       .  S
O165        C174   1.283   1_455  A
O166       Ni170   1.917       .  S
O166        C173   1.281   1_455  A
O167       Ni170   1.923       .  S
O167        C172   1.280   1_455  A
O168       Ni170   1.918       .  S
O168        C171   1.283   1_455  A
Ni169      Ni170   2.388   1_655  S
C171        C300   1.480       .  S
C172        C351   1.473       .  S
C173        C324   1.477       .  S
C174        C399   1.488       .  S
C175        C255   1.573       .  S
C175        C276   1.576       .  S
C175        C831   1.552   1_655  S
C175       C1020   1.579       .  S
C176        C279   1.552       .  S
C176        C567   1.564       .  S
C176       C1383   1.554   1_655  S
C176       C1503   1.565       .  S
C177        C204   1.556       .  S
C177        C228   1.550       .  S
C177        C615   1.560   1_455  S
C177        C687   1.542       .  S
C178        C231   1.545       .  S
C178        C327   1.551       .  S
C178       C1359   1.548       .  S
C178       C1527   1.559   1_455  S
O179       Ni187   1.908       .  S
O179        C189   1.280       .  A
O180       Ni187   1.913       .  S
O180        C190   1.280       .  A
O181       Ni187   1.915       .  S
O181        C191   1.281       .  A
O182       Ni187   1.916       .  S
O182        C192   1.282       .  A
O183       Ni188   1.915       .  S
O183        C192   1.280   1_455  A
O184       Ni188   1.916       .  S
O184        C191   1.282   1_455  A
O185       Ni188   1.911       .  S
O185        C190   1.281   1_455  A
O186       Ni188   1.913       .  S
O186        C189   1.281   1_455  A
Ni187      Ni188   2.388   1_655  S
C189        C207   1.473       .  S
C190        C495   1.475       .  S
C191        C303   1.480       .  S
C192        C252   1.478   1_655  S
C193        C194   1.398       .  A
C193        C198   1.404       .  A
C193        H209   1.084       .  S
C194        C195   1.403       .  A
C194        H210   1.084       .  S
C195        C205   1.401       .  A
C195        C196   1.409   1_655  A
C196        C202   1.407       .  A
C196        C197   1.408       .  A
C197        C199   1.412       .  A
C197        C198   1.410   1_455  A
C198        C206   1.400       .  A
C199        C208   1.399       .  A
C199        C200   1.402       .  A
C200        C201   1.396       .  A
C200        H211   1.084       .  S
C201        C202   1.403       .  A
C201        H212   1.084       .  S
C202        C203   1.397       .  A
C203        C204   1.417       .  A
C203        H213   1.081       .  S
C204        C205   1.413   1_455  A
C205        H214   1.084       .  S
C206        C207   1.407       .  A
C206        H215   1.084       .  S
C207        C208   1.404   1_655  A
C208        H216   1.084       .  S
C217        C218   1.399       .  A
C217        C222   1.404       .  A
C217        H233   1.084       .  S
C218        C219   1.404       .  A
C218        H234   1.084       .  S
C219        C229   1.402       .  A
C219        C220   1.408   1_655  A
C220        C226   1.405       .  A
C220        C221   1.408       .  A
C221        C223   1.408       .  A
C221        C222   1.407   1_455  A
C222        C230   1.400       .  A
C223        C232   1.401       .  A
C223        C224   1.403       .  A
C224        C225   1.399       .  A
C224        H235   1.084       .  S
C225        C226   1.404       .  A
C225        H236   1.084       .  S
C226        C227   1.397       .  A
C227        C228   1.418       .  A
C227        H237   1.083       .  S
C228        C229   1.415   1_455  A
C229        H238   1.077       .  S
C230        C231   1.413   1_655  A
C230        H239   1.082       .  S
C231        C232   1.415       .  A
C232        H240   1.083       .  S
C241        C242   1.400       .  A
C241        C246   1.406       .  A
C241        H257   1.084       .  S
C242        C243   1.403       .  A
C242        H258   1.084       .  S
C243        C253   1.404       .  A
C243        C244   1.412   1_455  A
C244        C250   1.410       .  A
C244        C245   1.412       .  A
C245        C247   1.407       .  A
C245        C246   1.404   1_655  A
C246        C254   1.402       .  A
C247        C256   1.402       .  A
C247        C248   1.404       .  A
C248        C249   1.397       .  A
C248        H259   1.084       .  S
C249        C250   1.402       .  A
C249        H260   1.084       .  S
C250        C251   1.400       .  A
C251        C252   1.405   1_655  A
C251        H261   1.084       .  S
C252        C253   1.408       .  A
C253        H262   1.084       .  S
C254        C255   1.423   1_455  A
C254        H263   1.074       .  S
C255        C256   1.419       .  A
C256        H264   1.077       .  S
C265        C266   1.397       .  A
C265        C270   1.403       .  A
C265        H281   1.084       .  S
C266        C267   1.404       .  A
C266        H282   1.084       .  S
C267        C277   1.399       .  A
C267        C268   1.404   1_455  A
C268        C274   1.405       .  A
C268        C269   1.412       .  A
C269        C271   1.409       .  A
C269        C270   1.407   1_655  A
C270        C278   1.398       .  A
C271        C280   1.407       .  A
C271        C272   1.405       .  A
C272        C273   1.402       .  A
C272        H283   1.083       .  S
C273        C274   1.405       .  A
C273        H284   1.084       .  S
C274        C275   1.406       .  A
C275        C276   1.421       .  A
C275        H285   1.074       .  S
C276        C277   1.418   1_655  A
C277        H286   1.072       .  S
C278        C279   1.415   1_455  A
C278        H287   1.084       .  S
C279        C280   1.418       .  A
C280        H288   1.080       .  S
C289        C290   1.397       .  A
C289        C294   1.403       .  A
C289        H305   1.084       .  S
C290        C291   1.403       .  A
C290        H306   1.084       .  S
C291        C301   1.400       .  A
C291        C292   1.411   1_455  A
C292        C298   1.411       .  A
C292        C293   1.411       .  A
C293        C295   1.411       .  A
C293        C294   1.411   1_655  A
C294        C302   1.401       .  A
C295        C304   1.403       .  A
C295        C296   1.404       .  A
C296        C297   1.399       .  A
C296        H307   1.084       .  S
C297        C298   1.404       .  A
C297        H308   1.084       .  S
C298        C299   1.404       .  A
C299        C300   1.408       .  A
C299        H309   1.084       .  S
C300        C301   1.406   1_655  A
C301        H310   1.084       .  S
C302        C303   1.407   1_455  A
C302        H311   1.084       .  S
C303        C304   1.408       .  A
C304        H312   1.084       .  S
C313        C314   1.399       .  A
C313        C318   1.404       .  A
C313        H329   1.084       .  S
C314        C315   1.403       .  A
C314        H330   1.083       .  S
C315        C325   1.405       .  A
C315        C316   1.412   1_455  A
C316        C322   1.411       .  A
C316        C317   1.413       .  A
C317        C319   1.409       .  A
C317        C318   1.409   1_655  A
C318        C326   1.403       .  A
C319        C328   1.402       .  A
C319        C320   1.404       .  A
C320        C321   1.400       .  A
C320        H331   1.084       .  S
C321        C322   1.404       .  A
C321        H332   1.084       .  S
C322        C323   1.404       .  A
C323        C324   1.407       .  A
C323        H333   1.085       .  S
C324        C325   1.405   1_655  A
C325        H334   1.084       .  S
C326        C327   1.416       .  A
C326        H335   1.080       .  S
C327        C328   1.414   1_455  A
C328        H336   1.084       .  S
C337        C338   1.405       .  A
C337        C342   1.406       .  A
C337        H353   1.083       .  S
C338        C339   1.406   1_455  A
C338        H354   1.083       .  S
C339        C349   1.410       .  A
C339        C340   1.409       .  A
C340        C346   1.408       .  A
C340        C341   1.413       .  A
C341        C343   1.411       .  A
C341        C342   1.413   1_655  A
C342        C350   1.412       .  A
C343        C352   1.398       .  A
C343        C344   1.402       .  A
C344        C345   1.396       .  A
C344        H355   1.084       .  S
C345        C346   1.402       .  A
C345        H356   1.084       .  S
C346        C347   1.398       .  A
C347        C348   1.415       .  A
C347        H357   1.083       .  S
C348        C349   1.417       .  A
C349        H358   1.084   1_655  S
C350        C351   1.408   1_455  A
C350        H359   1.084       .  S
C351        C352   1.402       .  A
C352        H360   1.085       .  S
C361        C362   1.393       .  A
C361        C366   1.404       .  A
C361        H377   1.084       .  S
C362        C363   1.401       .  A
C362        H378   1.084       .  S
C363        C373   1.391       .  A
C363        C364   1.406       .  A
C364        C370   1.411   1_455  A
C364        C365   1.411       .  A
C365        C367   1.403   1_455  A
C365        C366   1.404       .  A
C366        C374   1.396       .  A
C367        C376   1.409       .  A
C367        C368   1.407       .  A
C368        C369   1.405       .  A
C368        H379   1.083       .  S
C369        C370   1.406       .  A
C369        H380   1.083       .  S
C370        C371   1.412       .  A
C371        C372   1.416       .  A
C371        H381   1.083       .  S
C372        C373   1.413   1_655  A
C373        H382   1.084       .  S
C374        C375   1.419       .  A
C374        H383   1.068       .  S
C375        C376   1.427   1_455  A
C376        H384   1.081       .  S
C385        C386   1.400       .  A
C385        C390   1.404       .  A
C385        H401   1.084       .  S
C386        C387   1.404       .  A
C386        H402   1.083       .  S
C387        C397   1.407       .  A
C387        C388   1.412   1_455  A
C388        C394   1.410       .  A
C388        C389   1.415       .  A
C389        C391   1.412       .  A
C389        C390   1.410   1_655  A
C390        C398   1.405       .  A
C391        C400   1.407       .  A
C391        C392   1.404       .  A
C392        C393   1.400       .  A
C392        H403   1.084       .  S
C393        C394   1.404       .  A
C393        H404   1.084       .  S
C394        C395   1.405       .  A
C395        C396   1.410       .  A
C395        H405   1.084       .  S
C396        C397   1.409   1_655  A
C397        H406   1.084       .  S
C398        C399   1.409   1_455  A
C398        H407   1.084       .  S
C399        C400   1.409       .  A
C400        H408   1.084       .  S
C409        C410   1.398       .  A
C409        C414   1.403       .  A
C409        H425   1.084       .  S
C410        C411   1.404       .  A
C410        H426   1.083       .  S
C411        C421   1.403       .  A
C411        C412   1.410   1_455  A
C412        C418   1.412       .  A
C412        C413   1.417   1_655  A
C413        C415   1.408   1_455  A
C413        C414   1.407       .  A
C414        C422   1.401       .  A
C415        C424   1.410       .  A
C415        C416   1.406       .  A
C416        C417   1.403       .  A
C416        H427   1.083       .  S
C417        C418   1.405       .  A
C417        H428   1.083       .  S
C418        C419   1.412       .  A
C419        C420   1.411       .  A
C419        H429   1.084       .  S
C420        C421   1.410   1_655  A
C421        H430   1.084       .  S
C422        C423   1.419       .  A
C422        H431   1.085       .  S
C423        C424   1.424   1_455  A
C424        H432   1.081       .  S
C433        C434   1.403       .  A
C433        C438   1.405       .  A
C433        H449   1.083       .  S
C434        C435   1.406       .  A
C434        H450   1.083       .  S
C435        C445   1.407       .  A
C435        C436   1.409       .  A
C436        C442   1.413   1_655  A
C436        C437   1.415       .  A
C437        C439   1.405   1_655  A
C437        C438   1.410       .  A
C438        C446   1.410       .  A
C439        C448   1.401       .  A
C439        C440   1.405       .  A
C440        C441   1.398       .  A
C440        H451   1.084       .  S
C441        C442   1.402       .  A
C441        H452   1.083       .  S
C442        C443   1.406       .  A
C443        C444   1.406   1_455  A
C443        H453   1.084       .  S
C444        C445   1.411       .  A
C445        H454   1.084       .  S
C446        C447   1.418       .  A
C446        H455   1.084       .  S
C447        C448   1.423   1_655  A
C448        H456   1.079       .  S
C457        C458   1.405       .  A
C457        C462   1.407       .  A
C457        H473   1.083       .  S
C458        C459   1.405   1_655  A
C458        H474   1.083       .  S
C459        C469   1.411       .  A
C459        C460   1.408       .  A
C460        C466   1.408       .  A
C460        C461   1.417       .  A
C461        C463   1.406       .  A
C461        C462   1.409   1_455  A
C462        C470   1.414       .  A
C463        C472   1.403       .  A
C463        C464   1.405       .  A
C464        C465   1.400       .  A
C464        H475   1.084       .  S
C465        C466   1.404       .  A
C465        H476   1.084       .  S
C466        C467   1.405       .  A
C467        C468   1.419       .  A
C467        H477   1.083       .  S
C468        C469   1.416       .  A
C469        H478   1.084   1_455  S
C470        C471   1.420   1_655  A
C470        H479   1.078       .  S
C471        C472   1.421       .  A
C472        H480   1.082       .  S
C481        C482   1.400       .  A
C481        C486   1.404       .  A
C481        H497   1.084       .  S
C482        C483   1.404       .  A
C482        H498   1.084       .  S
C483        C493   1.404       .  A
C483        C484   1.412       .  A
C484        C490   1.411   1_655  A
C484        C485   1.409       .  A
C485        C487   1.411   1_655  A
C485        C486   1.411       .  A
C486        C494   1.404       .  A
C487        C496   1.397       .  A
C487        C488   1.402       .  A
C488        C489   1.395       .  A
C488        H499   1.084       .  S
C489        C490   1.402       .  A
C489        H500   1.084       .  S
C490        C491   1.397       .  A
C491        C492   1.404   1_455  A
C491        H501   1.084       .  S
C492        C493   1.408       .  A
C493        H502   1.084       .  S
C494        C495   1.408       .  A
C494        H503   1.084       .  S
C495        C496   1.404   1_655  A
C496        H504   1.084       .  S
C505        C506   1.400       .  A
C505        C510   1.404       .  A
C505        H521   1.083       .  S
C506        C507   1.404       .  A
C506        H522   1.084       .  S
C507        C517   1.406       .  A
C507        C508   1.412       .  A
C508        C514   1.410   1_455  A
C508        C509   1.415   1_455  A
C509        C511   1.412       .  A
C509        C510   1.410   1_655  A
C510        C518   1.405       .  A
C511        C520   1.407       .  A
C511        C512   1.404       .  A
C512        C513   1.400       .  A
C512        H523   1.083       .  S
C513        C514   1.404       .  A
C513        H524   1.084       .  S
C514        C515   1.404       .  A
C515        C516   1.410   1_655  A
C515        H525   1.084       .  S
C516        C517   1.408       .  A
C517        H526   1.084       .  S
C518        C519   1.410   1_455  A
C518        H527   1.084       .  S
C519        C520   1.409       .  A
C520        H528   1.084       .  S
C529        C530   1.404       .  A
C529        C534   1.406       .  A
C529        H545   1.083       .  S
C530        C531   1.405       .  A
C530        H546   1.083       .  S
C531        C541   1.410       .  A
C531        C532   1.412       .  A
C532        C538   1.411   1_455  A
C532        C533   1.414       .  A
C533        C535   1.407   1_455  A
C533        C534   1.411       .  A
C534        C542   1.411       .  A
C535        C544   1.396       .  A
C535        C536   1.403       .  A
C536        C537   1.396       .  A
C536        H547   1.084       .  S
C537        C538   1.402       .  A
C537        H548   1.084       .  S
C538        C539   1.399       .  A
C539        C540   1.405   1_655  A
C539        H549   1.085       .  S
C540        C541   1.408       .  A
C541        H550   1.084       .  S
C542        C543   1.417       .  A
C542        H551   1.080       .  S
C543        C544   1.415   1_455  A
C544        H552   1.085       .  S
C553        C554   1.400       .  A
C553        C558   1.405       .  A
C553        H569   1.084       .  S
C554        C555   1.404       .  A
C554        H570   1.083       .  S
C555        C565   1.408       .  A
C555        C556   1.413   1_455  A
C556        C562   1.409       .  A
C556        C557   1.414       .  A
C557        C559   1.411       .  A
C557        C558   1.406   1_655  A
C558        C566   1.401       .  A
C559        C568   1.407       .  A
C559        C560   1.403       .  A
C560        C561   1.401       .  A
C560        H571   1.083       .  S
C561        C562   1.405       .  A
C561        H572   1.083       .  S
C562        C563   1.405       .  A
C563        C564   1.410   1_655  A
C563        H573   1.084       .  S
C564        C565   1.408       .  A
C565        H574   1.084       .  S
C566        C567   1.422   1_455  A
C566        H575   1.081       .  S
C567        C568   1.414       .  A
C568        H576   1.084       .  S
C577        C578   1.403       .  A
C577        C582   1.406       .  A
C577        H593   1.084       .  S
C578        C579   1.405       .  A
C578        H594   1.083       .  S
C579        C589   1.409       .  A
C579        C580   1.411       .  A
C580        C586   1.405       .  A
C580        C581   1.410       .  A
C581        C583   1.407       .  A
C581        C582   1.406       .  A
C582        C590   1.406       .  A
C583        C592   1.398       .  A
C583        C584   1.402       .  A
C584        C585   1.395       .  A
C584        H595   1.084       .  S
C585        C586   1.402       .  A
C585        H596   1.084       .  S
C586        C587   1.392       .  A
C587        C588   1.416       .  A
C587        H597   1.084       .  S
C588        C589   1.416       .  A
C589        H598   1.080       .  S
C590        C591   1.421       .  A
C590        H599   1.079       .  S
C591        C592   1.415       .  A
C592        H600   1.081       .  S
C601        C602   1.400       .  A
C601        C606   1.404       .  A
C601        H617   1.084       .  S
C602        C603   1.405       .  A
C602        H618   1.083       .  S
C603        C613   1.402   1_545  A
C603        C604   1.407       .  A
C604        C610   1.409       .  A
C604        C605   1.412       .  A
C605        C607   1.407       .  A
C605        C606   1.408       .  A
C606        C614   1.403       .  A
C607        C616   1.398       .  A
C607        C608   1.403       .  A
C608        C609   1.396       .  A
C608        H619   1.084       .  S
C609        C610   1.403       .  A
C609        H620   1.084       .  S
C610        C611   1.401       .  A
C611        C612   1.416   1_545  A
C611        H621   1.078       .  S
C612        C613   1.419       .  A
C613        H622   1.084       .  S
C614        C615   1.418       .  A
C614        H623   1.084       .  S
C615        C616   1.417       .  A
C616        H624   1.078       .  S
C625        C626   1.399       .  A
C625        C630   1.403       .  A
C625        H641   1.084       .  S
C626        C627   1.404       .  A
C626        H642   1.084       .  S
C627        C637   1.403       .  A
C627        C628   1.410       .  A
C628        C634   1.406       .  A
C628        C629   1.409       .  A
C629        C631   1.414       .  A
C629        C630   1.410       .  A
C630        C638   1.399       .  A
C631        C640   1.402       .  A
C631        C632   1.401       .  A
C632        C633   1.397       .  A
C632        H643   1.084       .  S
C633        C634   1.404       .  A
C633        H644   1.084       .  S
C634        C635   1.397       .  A
C635        C636   1.415       .  A
C635        H645   1.082       .  S
C636        C637   1.417       .  A
C637        H646   1.082       .  S
C638        C639   1.403       .  A
C638        H647   1.085       .  S
C639        C640   1.399       .  A
C640        H648   1.084       .  S
C649        C650   1.398       .  A
C649        C654   1.403       .  A
C649        H665   1.084       .  S
C650        C651   1.403       .  A
C650        H666   1.083       .  S
C651        C661   1.400       .  A
C651        C652   1.408       .  A
C652        C658   1.409       .  A
C652        C653   1.413       .  A
C653        C655   1.408       .  A
C653        C654   1.408       .  A
C654        C662   1.400       .  A
C655        C664   1.406       .  A
C655        C656   1.405   1_565  A
C656        C657   1.401       .  A
C656        H667   1.084       .  S
C657        C658   1.405   1_545  A
C657        H668   1.084       .  S
C658        C659   1.405       .  A
C659        C660   1.416       .  A
C659        H669   1.079   1_565  S
C660        C661   1.414       .  A
C661        H670   1.084       .  S
C662        C663   1.414       .  A
C662        H671   1.084       .  S
C663        C664   1.419       .  A
C664        H672   1.079   1_565  S
C673        C674   1.392       .  A
C673        C678   1.400       .  A
C673        H689   1.084       .  S
C674        C675   1.401       .  A
C674        H690   1.084       .  S
C675        C685   1.389   1_545  A
C675        C676   1.406       .  A
C676        C682   1.411       .  A
C676        C677   1.408       .  A
C677        C679   1.409       .  A
C677        C678   1.409       .  A
C678        C686   1.392       .  A
C679        C688   1.404       .  A
C679        C680   1.405       .  A
C680        C681   1.401       .  A
C680        H691   1.084       .  S
C681        C682   1.404       .  A
C681        H692   1.083       .  S
C682        C683   1.407       .  A
C683        C684   1.414   1_545  A
C683        H693   1.082       .  S
C684        C685   1.413       .  A
C685        H694   1.083       .  S
C686        C687   1.410       .  A
C686        H695   1.085       .  S
C687        C688   1.416       .  A
C688        H696   1.082       .  S
C697        C698   1.396       .  A
C697        C702   1.402       .  A
C697        H713   1.084       .  S
C698        C699   1.403       .  A
C698        H714   1.084       .  S
C699        C709   1.399       .  A
C699        C700   1.405       .  A
C700        C706   1.407       .  A
C700        C701   1.414       .  A
C701        C703   1.407       .  A
C701        C702   1.409       .  A
C702        C710   1.401       .  A
C703        C712   1.404       .  A
C703        C704   1.405       .  A
C704        C705   1.402       .  A
C704        H715   1.084       .  S
C705        C706   1.406       .  A
C705        H716   1.084       .  S
C706        C707   1.409       .  A
C707        C708   1.420       .  A
C707        H717   1.073       .  S
C708        C709   1.421       .  A
C709        H718   1.080       .  S
C710        C711   1.415       .  A
C710        H719   1.081       .  S
C711        C712   1.419       .  A
C712        H720   1.084       .  S
C721        C722   1.398       .  A
C721        C726   1.403   1_545  A
C721        H737   1.083       .  S
C722        C723   1.404   1_545  A
C722        H738   1.084       .  S
C723        C733   1.400   1_565  A
C723        C724   1.407       .  A
C724        C730   1.409       .  A
C724        C725   1.410       .  A
C725        C727   1.410       .  A
C725        C726   1.412       .  A
C726        C734   1.403       .  A
C727        C736   1.401       .  A
C727        C728   1.404       .  A
C728        C729   1.398       .  A
C728        H739   1.084       .  S
C729        C730   1.403       .  A
C729        H740   1.084       .  S
C730        C731   1.400       .  A
C731        C732   1.414       .  A
C731        H741   1.084       .  S
C732        C733   1.417   1_565  A
C733        H742   1.080       .  S
C734        C735   1.405       .  A
C734        H743   1.084   1_565  S
C735        C736   1.407       .  A
C736        H744   1.084       .  S
C745        C746   1.394       .  A
C745        C750   1.401       .  A
C745        H761   1.084       .  S
C746        C747   1.402       .  A
C746        H762   1.084       .  S
C747        C757   1.396       .  A
C747        C748   1.408       .  A
C748        C754   1.408       .  A
C748        C749   1.412       .  A
C749        C751   1.409       .  A
C749        C750   1.408       .  A
C750        C758   1.396       .  A
C751        C760   1.407       .  A
C751        C752   1.406   1_565  A
C752        C753   1.403       .  A
C752        H763   1.083       .  S
C753        C754   1.406   1_545  A
C753        H764   1.084       .  S
C754        C755   1.406       .  A
C755        C756   1.418       .  A
C755        H765   1.084   1_565  S
C756        C757   1.414       .  A
C757        H766   1.080       .  S
C758        C759   1.411       .  A
C758        H767   1.080       .  S
C759        C760   1.418       .  A
C760        H768   1.084   1_565  S
C769        C770   1.396       .  A
C769        C774   1.402       .  A
C769        H785   1.084       .  S
C770        C771   1.403       .  A
C770        H786   1.084       .  S
C771        C781   1.396       .  A
C771        C772   1.410       .  A
C772        C778   1.412   1_565  A
C772        C773   1.406       .  A
C773        C775   1.410       .  A
C773        C774   1.412       .  A
C774        C782   1.398       .  A
C775        C784   1.396       .  A
C775        C776   1.402   1_565  A
C776        C777   1.396       .  A
C776        H787   1.084       .  S
C777        C778   1.402       .  A
C777        H788   1.084       .  S
C778        C779   1.399       .  A
C779        C780   1.405   1_545  A
C779        H789   1.084       .  S
C780        C781   1.406       .  A
C781        H790   1.084       .  S
C782        C783   1.405       .  A
C782        H791   1.084       .  S
C783        C784   1.405       .  A
C784        H792   1.084   1_565  S
C793        C794   1.399       .  A
C793        C798   1.403       .  A
C793        H809   1.084       .  S
C794        C795   1.404       .  A
C794        H810   1.083       .  S
C795        C805   1.401       .  A
C795        C796   1.409       .  A
C796        C802   1.413       .  A
C796        C797   1.412       .  A
C797        C799   1.407       .  A
C797        C798   1.411       .  A
C798        C806   1.403       .  A
C799        C808   1.400       .  A
C799        C800   1.404   1_565  A
C800        C801   1.399       .  A
C800        H811   1.084       .  S
C801        C802   1.403   1_545  A
C801        H812   1.084       .  S
C802        C803   1.405       .  A
C803        C804   1.407       .  A
C803        H813   1.084   1_565  S
C804        C805   1.409       .  A
C805        H814   1.084       .  S
C806        C807   1.411       .  A
C806        H815   1.084       .  S
C807        C808   1.418       .  A
C808        H816   1.082   1_565  S
C817        C818   1.399       .  A
C817        C822   1.404       .  A
C817        H833   1.084       .  S
C818        C819   1.403       .  A
C818        H834   1.084       .  S
C819        C829   1.401       .  A
C819        C820   1.409       .  A
C820        C826   1.408       .  A
C820        C821   1.409       .  A
C821        C823   1.408       .  A
C821        C822   1.408       .  A
C822        C830   1.400       .  A
C823        C832   1.397       .  A
C823        C824   1.402       .  A
C824        C825   1.395       .  A
C824        H835   1.084       .  S
C825        C826   1.402       .  A
C825        H836   1.084       .  S
C826        C827   1.396       .  A
C827        C828   1.415   1_545  A
C827        H837   1.081       .  S
C828        C829   1.414   1_565  A
C829        H838   1.084   1_545  S
C830        C831   1.415       .  A
C830        H839   1.083       .  S
C831        C832   1.416       .  A
C832        H840   1.081       .  S
C841        C842   1.402       .  A
C841        C846   1.405       .  A
C841        H857   1.083       .  S
C842        C843   1.405       .  A
C842        H858   1.083       .  S
C843        C853   1.410       .  A
C843        C844   1.410       .  A
C844        C850   1.408       .  A
C844        C845   1.416       .  A
C845        C847   1.408       .  A
C845        C846   1.410       .  A
C846        C854   1.409       .  A
C847        C856   1.402       .  A
C847        C848   1.404       .  A
C848        C849   1.399       .  A
C848        H859   1.084       .  S
C849        C850   1.404       .  A
C849        H860   1.084       .  S
C850        C851   1.402       .  A
C851        C852   1.417       .  A
C851        H861   1.083       .  S
C852        C853   1.418       .  A
C853        H862   1.079       .  S
C854        C855   1.418       .  A
C854        H863   1.081       .  S
C855        C856   1.417       .  A
C856        H864   1.084       .  S
C865        C866   1.399       .  A
C865        C870   1.404   1_545  A
C865        H881   1.084       .  S
C866        C867   1.403   1_545  A
C866        H882   1.084       .  S
C867        C877   1.403   1_565  A
C867        C868   1.412       .  A
C868        C874   1.410       .  A
C868        C869   1.411       .  A
C869        C871   1.411       .  A
C869        C870   1.407       .  A
C870        C878   1.398       .  A
C871        C880   1.404       .  A
C871        C872   1.403       .  A
C872        C873   1.399       .  A
C872        H883   1.084       .  S
C873        C874   1.404       .  A
C873        H884   1.083       .  S
C874        C875   1.402       .  A
C875        C876   1.408       .  A
C875        H885   1.084       .  S
C876        C877   1.407   1_565  A
C877        H886   1.084       .  S
C878        C879   1.416       .  A
C878        H887   1.084   1_565  S
C879        C880   1.413       .  A
C880        H888   1.082       .  S
C889        C890   1.397       .  A
C889        C894   1.404       .  A
C889        H905   1.084       .  S
C890        C891   1.404       .  A
C890        H906   1.084       .  S
C891        C901   1.400   1_545  A
C891        C892   1.408   1_545  A
C892        C898   1.408       .  A
C892        C893   1.411       .  A
C893        C895   1.409       .  A
C893        C894   1.407   1_565  A
C894        C902   1.399       .  A
C895        C904   1.402       .  A
C895        C896   1.403       .  A
C896        C897   1.399       .  A
C896        H907   1.083       .  S
C897        C898   1.403       .  A
C897        H908   1.083       .  S
C898        C899   1.400       .  A
C899        C900   1.414       .  A
C899        H909   1.084       .  S
C900        C901   1.418       .  A
C901        H910   1.079   1_565  S
C902        C903   1.420   1_545  A
C902        H911   1.080       .  S
C903        C904   1.412       .  A
C904        H912   1.084       .  S
C913        C914   1.397       .  A
C913        C918   1.403       .  A
C913        H929   1.084       .  S
C914        C915   1.402       .  A
C914        H930   1.084       .  S
C915        C925   1.399       .  A
C915        C916   1.411       .  A
C916        C922   1.411       .  A
C916        C917   1.409       .  A
C917        C919   1.411       .  A
C917        C918   1.411       .  A
C918        C926   1.399       .  A
C919        C928   1.400       .  A
C919        C920   1.403   1_565  A
C920        C921   1.398       .  A
C920        H931   1.084       .  S
C921        C922   1.403   1_545  A
C921        H932   1.084       .  S
C922        C923   1.400       .  A
C923        C924   1.408       .  A
C923        H933   1.084   1_565  S
C924        C925   1.405       .  A
C925        H934   1.084       .  S
C926        C927   1.406       .  A
C926        H935   1.084       .  S
C927        C928   1.406       .  A
C928        H936   1.084   1_565  S
C937        C938   1.398       .  A
C937        C942   1.404       .  A
C937        H953   1.084       .  S
C938        C939   1.403       .  A
C938        H954   1.084       .  S
C939        C949   1.404       .  A
C939        C940   1.412       .  A
C940        C946   1.410       .  A
C940        C941   1.414       .  A
C941        C943   1.411       .  A
C941        C942   1.407       .  A
C942        C950   1.399       .  A
C943        C952   1.408       .  A
C943        C944   1.404   1_565  A
C944        C945   1.402       .  A
C944        H955   1.083       .  S
C945        C946   1.405   1_545  A
C945        H956   1.083       .  S
C946        C947   1.406       .  A
C947        C948   1.410       .  A
C947        H957   1.084   1_565  S
C948        C949   1.407       .  A
C949        H958   1.084       .  S
C950        C951   1.419       .  A
C950        H959   1.081       .  S
C951        C952   1.415       .  A
C952        H960   1.084   1_565  S
C961        C962   1.405       .  A
C961        C966   1.408       .  A
C961        H977   1.083       .  S
C962        C963   1.405       .  A
C962        H978   1.083       .  S
C963        C973   1.414       .  A
C963        C964   1.411       .  A
C964        C970   1.404       .  A
C964        C965   1.417       .  A
C965        C967   1.408       .  A
C965        C966   1.404       .  A
C966        C974   1.411       .  A
C967        C976   1.407       .  A
C967        C968   1.404       .  A
C968        C969   1.400       .  A
C968        H979   1.083       .  S
C969        C970   1.404       .  A
C969        H980   1.084       .  S
C970        C971   1.402       .  A
C971        C972   1.421       .  A
C971        H981   1.081       .  S
C972        C973   1.417       .  A
C973        H982   1.082       .  S
C974        C975   1.426       .  A
C974        H983   1.072       .  S
C975        C976   1.421       .  A
C976        H984   1.084       .  S
C985        C986   1.404       .  A
C985        C990   1.405       .  A
C985       H1001   1.083       .  S
C986        C987   1.406       .  A
C986       H1002   1.083       .  S
C987        C997   1.410       .  A
C987        C988   1.409       .  A
C988        C994   1.407       .  A
C988        C989   1.414       .  A
C989        C991   1.410       .  A
C989        C990   1.412       .  A
C990        C998   1.410       .  A
C991       C1000   1.399       .  A
C991        C992   1.403   1_565  A
C992        C993   1.397       .  A
C992       H1003   1.084       .  S
C993        C994   1.403   1_545  A
C993       H1004   1.084       .  S
C994        C995   1.399       .  A
C995        C996   1.418       .  A
C995       H1005   1.084   1_565  S
C996        C997   1.419       .  A
C997       H1006   1.078       .  S
C998        C999   1.408       .  A
C998       H1007   1.084       .  S
C999       C1000   1.406       .  A
C1000      H1008   1.085   1_565  S
C1009      C1010   1.398       .  A
C1009      C1014   1.404       .  A
C1009      H1025   1.084   1_545  S
C1010      C1011   1.405       .  A
C1010      H1026   1.084       .  S
C1011      C1021   1.401       .  A
C1011      C1012   1.405       .  A
C1012      C1018   1.407       .  A
C1012      C1013   1.413       .  A
C1013      C1015   1.410       .  A
C1013      C1014   1.408       .  A
C1014      C1022   1.399   1_545  A
C1015      C1024   1.409       .  A
C1015      C1016   1.405       .  A
C1016      C1017   1.403       .  A
C1016      H1027   1.083       .  S
C1017      C1018   1.405       .  A
C1017      H1028   1.083       .  S
C1018      C1019   1.408       .  A
C1019      C1020   1.419       .  A
C1019      H1029   1.083       .  S
C1020      C1021   1.424       .  A
C1021      H1030   1.077       .  S
C1022      C1023   1.416       .  A
C1022      H1031   1.084       .  S
C1023      C1024   1.415   1_565  A
C1024      H1032   1.082       .  S
C1033      C1034   1.401       .  A
C1033      C1038   1.405       .  A
C1033      H1049   1.084       .  S
C1034      C1035   1.405       .  A
C1034      H1050   1.084       .  S
C1035      C1045   1.406       .  A
C1035      C1036   1.407       .  A
C1036      C1042   1.407       .  A
C1036      C1037   1.418       .  A
C1037      C1039   1.408       .  A
C1037      C1038   1.405       .  A
C1038      C1046   1.404       .  A
C1039      C1048   1.413       .  A
C1039      C1040   1.406       .  A
C1040      C1041   1.405       .  A
C1040      H1051   1.083       .  S
C1041      C1042   1.406       .  A
C1041      H1052   1.083       .  S
C1042      C1043   1.411       .  A
C1043      C1044   1.420       .  A
C1043      H1053   1.078       .  S
C1044      C1045   1.422       .  A
C1045      H1054   1.080       .  S
C1046      C1047   1.422       .  A
C1046      H1055   1.078       .  S
C1047      C1048   1.420       .  A
C1048      H1056   1.081       .  S
C1057      C1058   1.398       .  A
C1057      C1062   1.403   1_545  A
C1057      H1073   1.083       .  S
C1058      C1059   1.403   1_545  A
C1058      H1074   1.084       .  S
C1059      C1069   1.401       .  A
C1059      C1060   1.411       .  A
C1060      C1066   1.412       .  A
C1060      C1061   1.412       .  A
C1061      C1063   1.411       .  A
C1061      C1062   1.412       .  A
C1062      C1070   1.403       .  A
C1063      C1072   1.404       .  A
C1063      C1064   1.404       .  A
C1064      C1065   1.400       .  A
C1064      H1075   1.084       .  S
C1065      C1066   1.404       .  A
C1065      H1076   1.084       .  S
C1066      C1067   1.405       .  A
C1067      C1068   1.408       .  A
C1067      H1077   1.084       .  S
C1068      C1069   1.406       .  A
C1069      H1078   1.084   1_565  S
C1070      C1071   1.407       .  A
C1070      H1079   1.084   1_565  S
C1071      C1072   1.409       .  A
C1072      H1080   1.084       .  S
C1081      C1082   1.399       .  A
C1081      C1086   1.403       .  A
C1081      H1097   1.084       .  S
C1082      C1083   1.404       .  A
C1082      H1098   1.083       .  S
C1083      C1093   1.403       .  A
C1083      C1084   1.411   1_545  A
C1084      C1090   1.411       .  A
C1084      C1085   1.410       .  A
C1085      C1087   1.411       .  A
C1085      C1086   1.411   1_565  A
C1086      C1094   1.403       .  A
C1087      C1096   1.399       .  A
C1087      C1088   1.403       .  A
C1088      C1089   1.396       .  A
C1088      H1099   1.084       .  S
C1089      C1090   1.403       .  A
C1089      H1100   1.084       .  S
C1090      C1091   1.398       .  A
C1091      C1092   1.406       .  A
C1091      H1101   1.084       .  S
C1092      C1093   1.407   1_565  A
C1093      H1102   1.084       .  S
C1094      C1095   1.406   1_545  A
C1094      H1103   1.084       .  S
C1095      C1096   1.407       .  A
C1096      H1104   1.084       .  S
C1105      C1106   1.400       .  A
C1105      C1110   1.403   1_545  A
C1105      H1121   1.083       .  S
C1106      C1107   1.405   1_545  A
C1106      H1122   1.084       .  S
C1107      C1117   1.402       .  A
C1107      C1108   1.406       .  A
C1108      C1114   1.409       .  A
C1108      C1109   1.412       .  A
C1109      C1111   1.409       .  A
C1109      C1110   1.414       .  A
C1110      C1118   1.408       .  A
C1111      C1120   1.400       .  A
C1111      C1112   1.404       .  A
C1112      C1113   1.399       .  A
C1112      H1123   1.084       .  S
C1113      C1114   1.403       .  A
C1113      H1124   1.084       .  S
C1114      C1115   1.404       .  A
C1115      C1116   1.418       .  A
C1115      H1125   1.084       .  S
C1116      C1117   1.419       .  A
C1117      H1126   1.078   1_565  S
C1118      C1119   1.404       .  A
C1118      H1127   1.084   1_565  S
C1119      C1120   1.407       .  A
C1120      H1128   1.085       .  S
C1129      C1130   1.404       .  A
C1129      C1134   1.405       .  A
C1129      H1145   1.084       .  S
C1130      C1131   1.406       .  A
C1130      H1146   1.083       .  S
C1131      C1141   1.410       .  A
C1131      C1132   1.411   1_545  A
C1132      C1138   1.412       .  A
C1132      C1133   1.412       .  A
C1133      C1135   1.406       .  A
C1133      C1134   1.409   1_565  A
C1134      C1142   1.408       .  A
C1135      C1144   1.395       .  A
C1135      C1136   1.403       .  A
C1136      C1137   1.394       .  A
C1136      H1147   1.084       .  S
C1137      C1138   1.401       .  A
C1137      H1148   1.084       .  S
C1138      C1139   1.398       .  A
C1139      C1140   1.403       .  A
C1139      H1149   1.084       .  S
C1140      C1141   1.412   1_565  A
C1141      H1150   1.084       .  S
C1142      C1143   1.417   1_545  A
C1142      H1151   1.084       .  S
C1143      C1144   1.418       .  A
C1144      H1152   1.080       .  S
C1153      C1154   1.393       .  A
C1153      C1158   1.401       .  A
C1153      H1169   1.084       .  S
C1154      C1155   1.401       .  A
C1154      H1170   1.084       .  S
C1155      C1165   1.392       .  A
C1155      C1156   1.407       .  A
C1156      C1162   1.411       .  A
C1156      C1157   1.413       .  A
C1157      C1159   1.410       .  A
C1157      C1158   1.407       .  A
C1158      C1166   1.393       .  A
C1159      C1168   1.412       .  A
C1159      C1160   1.407       .  A
C1160      C1161   1.405       .  A
C1160      H1171   1.083       .  S
C1161      C1162   1.406       .  A
C1161      H1172   1.083       .  S
C1162      C1163   1.412       .  A
C1163      C1164   1.416       .  A
C1163      H1173   1.081       .  S
C1164      C1165   1.412       .  A
C1165      H1174   1.084       .  S
C1166      C1167   1.415       .  A
C1166      H1175   1.085       .  S
C1167      C1168   1.419       .  A
C1168      H1176   1.078       .  S
C1177      C1178   1.397       .  A
C1177      C1182   1.403       .  A
C1177      H1193   1.084       .  S
C1178      C1179   1.403       .  A
C1178      H1194   1.084       .  S
C1179      C1189   1.395       .  A
C1179      C1180   1.403       .  A
C1180      C1186   1.409       .  A
C1180      C1181   1.408       .  A
C1181      C1183   1.405       .  A
C1181      C1182   1.408       .  A
C1182      C1190   1.398       .  A
C1183      C1192   1.403       .  A
C1183      C1184   1.407       .  A
C1184      C1185   1.402       .  A
C1184      H1195   1.083       .  S
C1185      C1186   1.404       .  A
C1185      H1196   1.084       .  S
C1186      C1187   1.406       .  A
C1187      C1188   1.413       .  A
C1187      H1197   1.082       .  S
C1188      C1189   1.420       .  A
C1189      H1198   1.082       .  S
C1190      C1191   1.416       .  A
C1190      H1199   1.084       .  S
C1191      C1192   1.421       .  A
C1192      H1200   1.075       .  S
C1201      C1202   1.396       .  A
C1201      C1206   1.406       .  A
C1201      H1217   1.084       .  S
C1202      C1203   1.401       .  A
C1202      H1218   1.084       .  S
C1203      C1213   1.399       .  A
C1203      C1204   1.409       .  A
C1204      C1210   1.405       .  A
C1204      C1205   1.409       .  A
C1205      C1207   1.408       .  A
C1205      C1206   1.401       .  A
C1206      C1214   1.396       .  A
C1207      C1216   1.404       .  A
C1207      C1208   1.405       .  A
C1208      C1209   1.399       .  A
C1208      H1219   1.085       .  S
C1209      C1210   1.404       .  A
C1209      H1220   1.083       .  S
C1210      C1211   1.399       .  A
C1211      C1212   1.419       .  A
C1211      H1221   1.083       .  S
C1212      C1213   1.412       .  A
C1213      H1222   1.079       .  S
C1214      C1215   1.429       .  A
C1214      H1223   1.075       .  S
C1215      C1216   1.419       .  A
C1216      H1224   1.077       .  S
C1225      C1226   1.396       .  A
C1225      C1230   1.403       .  A
C1225      H1241   1.084   1_556  S
C1226      C1227   1.404       .  A
C1226      H1242   1.084       .  S
C1227      C1237   1.399       .  A
C1227      C1228   1.406       .  A
C1228      C1234   1.410       .  A
C1228      C1229   1.416       .  A
C1229      C1231   1.409       .  A
C1229      C1230   1.407       .  A
C1230      C1238   1.399       .  A
C1231      C1240   1.413       .  A
C1231      C1232   1.406       .  A
C1232      C1233   1.406       .  A
C1232      H1243   1.083       .  S
C1233      C1234   1.406       .  A
C1233      H1244   1.083       .  S
C1234      C1235   1.415       .  A
C1235      C1236   1.419       .  A
C1235      H1245   1.083       .  S
C1236      C1237   1.419       .  A
C1237      H1246   1.079       .  S
C1238      C1239   1.419       .  A
C1238      H1247   1.080   1_556  S
C1239      C1240   1.420       .  A
C1240      H1248   1.084       .  S
C1249      C1250   1.396       .  A
C1249      C1254   1.403       .  A
C1249      H1265   1.084       .  S
C1250      C1251   1.403       .  A
C1250      H1266   1.084       .  S
C1251      C1261   1.395       .  A
C1251      C1252   1.407       .  A
C1252      C1258   1.408   1_554  A
C1252      C1253   1.407       .  A
C1253      C1255   1.413   1_554  A
C1253      C1254   1.410       .  A
C1254      C1262   1.396       .  A
C1255      C1264   1.401       .  A
C1255      C1256   1.401       .  A
C1256      C1257   1.397       .  A
C1256      H1267   1.084       .  S
C1257      C1258   1.404       .  A
C1257      H1268   1.084       .  S
C1258      C1259   1.399       .  A
C1259      C1260   1.417   1_556  A
C1259      H1269   1.078       .  S
C1260      C1261   1.420       .  A
C1261      H1270   1.085       .  S
C1262      C1263   1.405       .  A
C1262      H1271   1.085       .  S
C1263      C1264   1.402   1_554  A
C1264      H1272   1.084       .  S
C1273      C1274   1.402       .  A
C1273      C1278   1.406       .  A
C1273      H1289   1.083       .  S
C1274      C1275   1.404   1_556  A
C1274      H1290   1.084       .  S
C1275      C1285   1.409       .  A
C1275      C1276   1.409       .  A
C1276      C1282   1.402       .  A
C1276      C1277   1.414       .  A
C1277      C1279   1.409       .  A
C1277      C1278   1.405   1_554  A
C1278      C1286   1.404       .  A
C1279      C1288   1.403   1_554  A
C1279      C1280   1.403       .  A
C1280      C1281   1.397       .  A
C1280      H1291   1.084       .  S
C1281      C1282   1.405       .  A
C1281      H1292   1.084       .  S
C1282      C1283   1.399       .  A
C1283      C1284   1.426       .  A
C1283      H1293   1.074       .  S
C1284      C1285   1.418       .  A
C1285      H1294   1.082       .  S
C1286      C1287   1.419       .  A
C1286      H1295   1.079       .  S
C1287      C1288   1.417       .  A
C1288      H1296   1.080   1_556  S
C1297      C1298   1.402       .  A
C1297      C1302   1.404       .  A
C1297      H1313   1.083       .  S
C1298      C1299   1.406       .  A
C1298      H1314   1.083       .  S
C1299      C1309   1.407       .  A
C1299      C1300   1.408       .  A
C1300      C1306   1.409       .  A
C1300      C1301   1.413       .  A
C1301      C1303   1.406       .  A
C1301      C1302   1.412       .  A
C1302      C1310   1.410       .  A
C1303      C1312   1.394       .  A
C1303      C1304   1.403       .  A
C1304      C1305   1.396       .  A
C1304      H1315   1.084       .  S
C1305      C1306   1.402       .  A
C1305      H1316   1.084       .  S
C1306      C1307   1.398       .  A
C1307      C1308   1.415       .  A
C1307      H1317   1.085   1_545  S
C1308      C1309   1.418       .  A
C1309      H1318   1.079       .  S
C1310      C1311   1.414       .  A
C1310      H1319   1.080       .  S
C1311      C1312   1.415       .  A
C1312      H1320   1.084       .  S
C1321      C1322   1.397       .  A
C1321      C1326   1.403       .  A
C1321      H1337   1.084       .  S
C1322      C1323   1.403       .  A
C1322      H1338   1.084       .  S
C1323      C1333   1.395       .  A
C1323      C1324   1.404       .  A
C1324      C1330   1.409       .  A
C1324      C1325   1.406       .  A
C1325      C1327   1.405       .  A
C1325      C1326   1.406       .  A
C1326      C1334   1.396       .  A
C1327      C1336   1.401       .  A
C1327      C1328   1.406       .  A
C1328      C1329   1.400       .  A
C1328      H1339   1.083       .  S
C1329      C1330   1.403       .  A
C1329      H1340   1.084       .  S
C1330      C1331   1.403       .  A
C1331      C1332   1.410       .  A
C1331      H1341   1.083       .  S
C1332      C1333   1.419       .  A
C1333      H1342   1.082       .  S
C1334      C1335   1.418       .  A
C1334      H1343   1.084   1_545  S
C1335      C1336   1.418       .  A
C1336      H1344   1.073       .  S
C1345      C1346   1.395       .  A
C1345      C1350   1.402       .  A
C1345      H1361   1.084       .  S
C1346      C1347   1.403       .  A
C1346      H1362   1.084       .  S
C1347      C1357   1.393       .  A
C1347      C1348   1.404       .  A
C1348      C1354   1.410       .  A
C1348      C1349   1.409       .  A
C1349      C1351   1.408       .  A
C1349      C1350   1.409       .  A
C1350      C1358   1.395       .  A
C1351      C1360   1.407       .  A
C1351      C1352   1.406       .  A
C1352      C1353   1.404       .  A
C1352      H1363   1.083       .  S
C1353      C1354   1.405       .  A
C1353      H1364   1.083       .  S
C1354      C1355   1.410       .  A
C1355      C1356   1.414       .  A
C1355      H1365   1.083       .  S
C1356      C1357   1.421       .  A
C1357      H1366   1.082       .  S
C1358      C1359   1.412       .  A
C1358      H1367   1.083       .  S
C1359      C1360   1.416       .  A
C1360      H1368   1.083       .  S
C1369      C1370   1.394       .  A
C1369      C1374   1.401       .  A
C1369      H1385   1.084       .  S
C1370      C1371   1.402       .  A
C1370      H1386   1.084       .  S
C1371      C1381   1.394       .  A
C1371      C1372   1.408       .  A
C1372      C1378   1.411       .  A
C1372      C1373   1.412       .  A
C1373      C1375   1.410       .  A
C1373      C1374   1.408       .  A
C1374      C1382   1.393       .  A
C1375      C1384   1.409       .  A
C1375      C1376   1.406       .  A
C1376      C1377   1.403       .  A
C1376      H1387   1.083       .  S
C1377      C1378   1.406       .  A
C1377      H1388   1.083       .  S
C1378      C1379   1.410       .  A
C1379      C1380   1.417       .  A
C1379      H1389   1.080       .  S
C1380      C1381   1.413       .  A
C1381      H1390   1.084       .  S
C1382      C1383   1.413       .  A
C1382      H1391   1.084       .  S
C1383      C1384   1.418       .  A
C1384      H1392   1.080       .  S
C1393      C1394   1.398       .  A
C1393      C1398   1.404       .  A
C1393      H1409   1.084       .  S
C1394      C1395   1.403       .  A
C1394      H1410   1.084       .  S
C1395      C1405   1.402       .  A
C1395      C1396   1.409   1_556  A
C1396      C1402   1.408       .  A
C1396      C1397   1.416       .  A
C1397      C1399   1.413       .  A
C1397      C1398   1.409   1_554  A
C1398      C1406   1.401       .  A
C1399      C1408   1.412       .  A
C1399      C1400   1.405       .  A
C1400      C1401   1.403       .  A
C1400      H1411   1.083       .  S
C1401      C1402   1.406       .  A
C1401      H1412   1.084       .  S
C1402      C1403   1.409       .  A
C1403      C1404   1.419       .  A
C1403      H1413   1.077       .  S
C1404      C1405   1.417   1_554  A
C1405      H1414   1.085       .  S
C1406      C1407   1.409   1_556  A
C1406      H1415   1.084       .  S
C1407      C1408   1.409       .  A
C1408      H1416   1.084       .  S
C1417      C1418   1.394       .  A
C1417      C1422   1.403       .  A
C1417      H1433   1.084       .  S
C1418      C1419   1.402       .  A
C1418      H1434   1.084       .  S
C1419      C1429   1.395       .  A
C1419      C1420   1.406       .  A
C1420      C1426   1.407       .  A
C1420      C1421   1.411       .  A
C1421      C1423   1.407   1_556  A
C1421      C1422   1.406       .  A
C1422      C1430   1.396   1_556  A
C1423      C1432   1.407       .  A
C1423      C1424   1.406       .  A
C1424      C1425   1.404       .  A
C1424      H1435   1.083       .  S
C1425      C1426   1.406   1_554  A
C1425      H1436   1.083       .  S
C1426      C1427   1.408       .  A
C1427      C1428   1.420       .  A
C1427      H1437   1.080   1_556  S
C1428      C1429   1.417       .  A
C1429      H1438   1.080       .  S
C1430      C1431   1.417       .  A
C1430      H1439   1.077       .  S
C1431      C1432   1.421       .  A
C1432      H1440   1.082       .  S
C1441      C1442   1.397       .  A
C1441      C1446   1.403       .  A
C1441      H1457   1.084       .  S
C1442      C1443   1.403       .  A
C1442      H1458   1.084       .  S
C1443      C1453   1.397       .  A
C1443      C1444   1.410       .  A
C1444      C1450   1.412   1_554  A
C1444      C1445   1.406       .  A
C1445      C1447   1.411   1_554  A
C1445      C1446   1.411       .  A
C1446      C1454   1.399       .  A
C1447      C1456   1.396       .  A
C1447      C1448   1.402       .  A
C1448      C1449   1.395       .  A
C1448      H1459   1.084       .  S
C1449      C1450   1.401       .  A
C1449      H1460   1.084       .  S
C1450      C1451   1.397       .  A
C1451      C1452   1.403   1_556  A
C1451      H1461   1.084       .  S
C1452      C1453   1.407       .  A
C1453      H1462   1.084       .  S
C1454      C1455   1.407       .  A
C1454      H1463   1.084       .  S
C1455      C1456   1.404   1_554  A
C1456      H1464   1.084       .  S
C1465      C1466   1.400       .  A
C1465      C1470   1.405       .  A
C1465      H1481   1.084       .  S
C1466      C1467   1.404       .  A
C1466      H1482   1.083       .  S
C1467      C1477   1.406       .  A
C1467      C1468   1.412   1_556  A
C1468      C1474   1.411       .  A
C1468      C1469   1.413   1_554  A
C1469      C1471   1.408   1_556  A
C1469      C1470   1.408       .  A
C1470      C1478   1.404       .  A
C1471      C1480   1.402       .  A
C1471      C1472   1.403       .  A
C1472      C1473   1.399       .  A
C1472      H1483   1.084       .  S
C1473      C1474   1.404       .  A
C1473      H1484   1.083       .  S
C1474      C1475   1.403       .  A
C1475      C1476   1.407       .  A
C1475      H1485   1.084       .  S
C1476      C1477   1.406   1_554  A
C1477      H1486   1.084       .  S
C1478      C1479   1.418       .  A
C1478      H1487   1.078       .  S
C1479      C1480   1.417   1_556  A
C1480      H1488   1.084       .  S
C1489      C1490   1.404       .  A
C1489      C1494   1.406       .  A
C1489      H1505   1.083       .  S
C1490      C1491   1.405       .  A
C1490      H1506   1.083       .  S
C1491      C1501   1.410       .  A
C1491      C1492   1.409       .  A
C1492      C1498   1.407       .  A
C1492      C1493   1.416       .  A
C1493      C1495   1.409       .  A
C1493      C1494   1.408       .  A
C1494      C1502   1.409       .  A
C1495      C1504   1.402       .  A
C1495      C1496   1.403       .  A
C1496      C1497   1.396       .  A
C1496      H1507   1.084       .  S
C1497      C1498   1.403       .  A
C1497      H1508   1.084       .  S
C1498      C1499   1.400       .  A
C1499      C1500   1.418       .  A
C1499      H1509   1.079       .  S
C1500      C1501   1.420       .  A
C1501      H1510   1.084       .  S
C1502      C1503   1.420       .  A
C1502      H1511   1.084       .  S
C1503      C1504   1.417       .  A
C1504      H1512   1.078       .  S
C1513      C1514   1.396       .  A
C1513      C1518   1.402       .  A
C1513      H1529   1.084       .  S
C1514      C1515   1.403       .  A
C1514      H1530   1.084       .  S
C1515      C1525   1.395       .  A
C1515      C1516   1.406       .  A
C1516      C1522   1.410       .  A
C1516      C1517   1.411       .  A
C1517      C1519   1.408       .  A
C1517      C1518   1.407       .  A
C1518      C1526   1.396       .  A
C1519      C1528   1.407       .  A
C1519      C1520   1.405       .  A
C1520      C1521   1.403       .  A
C1520      H1531   1.084       .  S
C1521      C1522   1.406       .  A
C1521      H1532   1.083       .  S
C1522      C1523   1.410       .  A
C1523      C1524   1.417       .  A
C1523      H1533   1.079       .  S
C1524      C1525   1.416       .  A
C1525      H1534   1.084       .  S
C1526      C1527   1.415       .  A
C1526      H1535   1.083       .  S
C1527      C1528   1.417       .  A
C1528      H1536   1.079       .  S
C1537      C1538   1.397       .  A
C1537      C1542   1.403       .  A
C1537      H1553   1.084   1_545  S
C1538      C1539   1.403       .  A
C1538      H1554   1.084       .  S
C1539      C1549   1.393       .  A
C1539      C1540   1.404       .  A
C1540      C1546   1.409       .  A
C1540      C1541   1.409       .  A
C1541      C1543   1.407       .  A
C1541      C1542   1.407       .  A
C1542      C1550   1.397   1_545  A
C1543      C1552   1.406       .  A
C1543      C1544   1.405       .  A
C1544      C1545   1.404       .  A
C1544      H1555   1.083       .  S
C1545      C1546   1.406       .  A
C1545      H1556   1.083       .  S
C1546      C1547   1.410       .  A
C1547      C1548   1.418       .  A
C1547      H1557   1.076       .  S
C1548      C1549   1.421       .  A
C1549      H1558   1.084       .  S
C1550      C1551   1.418       .  A
C1550      H1559   1.082       .  S
C1551      C1552   1.417   1_565  A
C1552      H1560   1.083       .  S
C1561      C1562   1.398       .  A
C1561      C1566   1.403       .  A
C1561      H1577   1.084       .  S
C1562      C1563   1.403       .  A
C1562      H1578   1.084       .  S
C1563      C1573   1.400       .  A
C1563      C1564   1.407       .  A
C1564      C1570   1.409       .  A
C1564      C1565   1.413       .  A
C1565      C1567   1.408       .  A
C1565      C1566   1.406       .  A
C1566      C1574   1.397       .  A
C1567      C1576   1.411       .  A
C1567      C1568   1.407       .  A
C1568      C1569   1.405       .  A
C1568      H1579   1.083       .  S
C1569      C1570   1.406       .  A
C1569      H1580   1.083       .  S
C1570      C1571   1.411       .  A
C1571      C1572   1.416       .  A
C1571      H1581   1.083       .  S
C1572      C1573   1.418       .  A
C1573      H1582   1.083   1_545  S
C1574      C1575   1.420       .  A
C1574      H1583   1.084       .  S
C1575      C1576   1.421       .  A
C1576      H1584   1.076       .  S
C1585      C1586   1.400       .  A
C1585      C1590   1.404       .  A
C1585      H1601   1.083       .  S
C1586      C1587   1.403       .  A
C1586      H1602   1.083       .  S
C1587      C1597   1.405       .  A
C1587      C1588   1.410   1_556  A
C1588      C1594   1.406       .  A
C1588      C1589   1.411       .  A
C1589      C1591   1.413       .  A
C1589      C1590   1.410   1_554  A
C1590      C1598   1.402       .  A
C1591      C1600   1.402       .  A
C1591      C1592   1.402       .  A
C1592      C1593   1.398       .  A
C1592      H1603   1.084       .  S
C1593      C1594   1.405       .  A
C1593      H1604   1.084       .  S
C1594      C1595   1.399       .  A
C1595      C1596   1.422       .  A
C1595      H1605   1.080       .  S
C1596      C1597   1.413   1_554  A
C1597      H1606   1.084       .  S
C1598      C1599   1.406       .  A
C1598      H1607   1.084       .  S
C1599      C1600   1.404   1_556  A
C1600      H1608   1.084       .  S
C1609      C1610   1.408       .  A
C1609      C1614   1.408       .  A
C1609      H1625   1.083       .  S
C1610      C1611   1.407       .  A
C1610      H1626   1.083       .  S
C1611      C1621   1.417       .  A
C1611      C1612   1.410       .  A
C1612      C1618   1.405   1_554  A
C1612      C1613   1.416       .  A
C1613      C1615   1.409   1_554  A
C1613      C1614   1.407       .  A
C1614      C1622   1.413       .  A
C1615      C1624   1.397       .  A
C1615      C1616   1.401       .  A
C1616      C1617   1.392       .  A
C1616      H1627   1.084       .  S
C1617      C1618   1.402       .  A
C1617      H1628   1.084       .  S
C1618      C1619   1.394       .  A
C1619      C1620   1.420   1_556  A
C1619      H1629   1.078       .  S
C1620      C1621   1.422       .  A
C1621      H1630   1.084       .  S
C1622      C1623   1.423       .  A
C1622      H1631   1.084       .  S
C1623      C1624   1.413   1_554  A
C1624      H1632   1.078       .  S
C1633      C1634   1.400       .  A
C1633      C1638   1.404       .  A
C1633      H1649   1.084       .  S
C1634      C1635   1.404       .  A
C1634      H1650   1.084       .  S
C1635      C1645   1.404       .  A
C1635      C1636   1.411       .  A
C1636      C1642   1.411   1_556  A
C1636      C1637   1.413       .  A
C1637      C1639   1.411   1_556  A
C1637      C1638   1.411       .  A
C1638      C1646   1.404       .  A
C1639      C1648   1.403       .  A
C1639      C1640   1.403       .  A
C1640      C1641   1.398       .  A
C1640      H1651   1.083       .  S
C1641      C1642   1.403       .  A
C1641      H1652   1.084       .  S
C1642      C1643   1.403       .  A
C1643      C1644   1.407   1_554  A
C1643      H1653   1.084       .  S
C1644      C1645   1.410       .  A
C1645      H1654   1.084       .  S
C1646      C1647   1.409       .  A
C1646      H1655   1.084       .  S
C1647      C1648   1.407   1_556  A
C1648      H1656   1.084       .  S
C1657      C1658   1.399       .  A
C1657      C1662   1.404       .  A
C1657      H1673   1.084       .  S
C1658      C1659   1.404       .  A
C1658      H1674   1.084       .  S
C1659      C1669   1.402       .  A
C1659      C1660   1.410       .  A
C1660      C1666   1.412   1_554  A
C1660      C1661   1.413       .  A
C1661      C1663   1.408   1_554  A
C1661      C1662   1.410       .  A
C1662      C1670   1.403       .  A
C1663      C1672   1.402       .  A
C1663      C1664   1.404       .  A
C1664      C1665   1.400       .  A
C1664      H1675   1.084       .  S
C1665      C1666   1.404       .  A
C1665      H1676   1.083       .  S
C1666      C1667   1.405       .  A
C1667      C1668   1.407       .  A
C1667      H1677   1.084       .  S
C1668      C1669   1.408   1_556  A
C1669      H1678   1.084       .  S
C1670      C1671   1.416       .  A
C1670      H1679   1.081       .  S
C1671      C1672   1.415   1_554  A
C1672      H1680   1.084       .  S
C1681      C1682   1.407       .  A
C1681      C1686   1.406       .  A
C1681      H1697   1.083       .  S
C1682      C1683   1.407       .  A
C1682      H1698   1.083       .  S
C1683      C1693   1.415       .  A
C1683      C1684   1.410       .  A
C1684      C1690   1.408       .  A
C1684      C1685   1.417       .  A
C1685      C1687   1.406       .  A
C1685      C1686   1.412       .  A
C1686      C1694   1.417       .  A
C1687      C1696   1.395       .  A
C1687      C1688   1.402       .  A
C1688      C1689   1.395       .  A
C1688      H1699   1.084       .  S
C1689      C1690   1.402       .  A
C1689      H1700   1.084       .  S
C1690      C1691   1.397       .  A
C1691      C1692   1.415       .  A
C1691      H1701   1.084       .  S
C1692      C1693   1.420       .  A
C1693      H1702   1.080       .  S
C1694      C1695   1.418       .  A
C1694      H1703   1.081       .  S
C1695      C1696   1.416       .  A
C1696      H1704   1.083       .  S
C1705      C1706   1.399       .  A
C1705      C1710   1.403       .  A
C1705      H1721   1.084       .  S
C1706      C1707   1.405       .  A
C1706      H1722   1.084       .  S
C1707      C1717   1.404       .  A
C1707      C1708   1.408       .  A
C1708      C1714   1.407       .  A
C1708      C1709   1.414       .  A
C1709      C1711   1.409       .  A
C1709      C1710   1.409       .  A
C1710      C1718   1.403       .  A
C1711      C1720   1.403       .  A
C1711      C1712   1.404       .  A
C1712      C1713   1.400       .  A
C1712      H1723   1.083       .  S
C1713      C1714   1.404       .  A
C1713      H1724   1.083       .  S
C1714      C1715   1.403       .  A
C1715      C1716   1.420       .  A
C1715      H1725   1.084       .  S
C1716      C1717   1.419       .  A
C1717      H1726   1.076       .  S
C1718      C1719   1.415       .  A
C1718      H1727   1.080       .  S
C1719      C1720   1.414       .  A
C1720      H1728   1.084       .  S
C1729      C1730   1.398       .  A
C1729      C1734   1.403       .  A
C1729      H1745   1.084       .  S
C1730      C1731   1.404       .  A
C1730      H1746   1.084       .  S
C1731      C1741   1.398       .  A
C1731      C1732   1.406       .  A
C1732      C1738   1.412       .  A
C1732      C1733   1.413       .  A
C1733      C1735   1.407       .  A
C1733      C1734   1.408       .  A
C1734      C1742   1.401       .  A
C1735      C1744   1.406       .  A
C1735      C1736   1.405       .  A
C1736      C1737   1.402       .  A
C1736      H1747   1.084       .  S
C1737      C1738   1.404       .  A
C1737      H1748   1.083       .  S
C1738      C1739   1.409       .  A
C1739      C1740   1.415       .  A
C1739      H1749   1.081       .  S
C1740      C1741   1.419       .  A
C1741      H1750   1.084       .  S
C1742      C1743   1.419       .  A
C1742      H1751   1.084       .  S
C1743      C1744   1.417       .  A
C1744      H1752   1.077       .  S
C1753      C1754   1.395       .  A
C1753      C1758   1.404       .  A
C1753      H1769   1.084       .  S
C1754      C1755   1.401       .  A
C1754      H1770   1.084       .  S
C1755      C1765   1.397       .  A
C1755      C1756   1.410       .  A
C1756      C1762   1.411   1_556  A
C1756      C1757   1.412       .  A
C1757      C1759   1.406   1_556  A
C1757      C1758   1.403       .  A
C1758      C1766   1.396       .  A
C1759      C1768   1.409       .  A
C1759      C1760   1.407       .  A
C1760      C1761   1.402       .  A
C1760      H1771   1.083       .  S
C1761      C1762   1.404       .  A
C1761      H1772   1.083       .  S
C1762      C1763   1.407       .  A
C1763      C1764   1.408   1_554  A
C1763      H1773   1.084       .  S
C1764      C1765   1.406       .  A
C1765      H1774   1.084       .  S
C1766      C1767   1.420       .  A
C1766      H1775   1.077       .  S
C1767      C1768   1.423   1_556  A
C1768      H1776   1.072       .  S
C1777      C1778   1.395       .  A
C1777      C1782   1.403       .  A
C1777      H1793   1.084       .  S
C1778      C1779   1.404       .  A
C1778      H1794   1.084       .  S
C1779      C1789   1.396       .  A
C1779      C1780   1.404       .  A
C1780      C1786   1.409       .  A
C1780      C1781   1.415       .  A
C1781      C1783   1.408       .  A
C1781      C1782   1.408       .  A
C1782      C1790   1.399       .  A
C1783      C1792   1.411       .  A
C1783      C1784   1.407       .  A
C1784      C1785   1.406       .  A
C1784      H1795   1.083       .  S
C1785      C1786   1.406       .  A
C1785      H1796   1.083       .  S
C1786      C1787   1.413       .  A
C1787      C1788   1.423       .  A
C1787      H1797   1.084       .  S
C1788      C1789   1.424       .  A
C1789      H1798   1.080   1_554  S
C1790      C1791   1.416       .  A
C1790      H1799   1.079   1_655  S
C1791      C1792   1.418       .  A
C1792      H1800   1.083       .  S
C1801      C1802   1.402       .  A
C1801      C1806   1.404       .  A
C1801      H1817   1.083       .  S
C1802      C1803   1.407       .  A
C1802      H1818   1.083       .  S
C1803      C1813   1.408       .  A
C1803      C1804   1.404       .  A
C1804      C1810   1.407   1_556  A
C1804      C1805   1.417       .  A
C1805      C1807   1.406   1_556  A
C1805      C1806   1.409       .  A
C1806      C1814   1.409       .  A
C1807      C1816   1.404       .  A
C1807      C1808   1.405       .  A
C1808      C1809   1.400       .  A
C1808      H1819   1.084       .  S
C1809      C1810   1.405       .  A
C1809      H1820   1.084       .  S
C1810      C1811   1.407       .  A
C1811      C1812   1.423   1_554  A
C1811      H1821   1.077       .  S
C1812      C1813   1.423       .  A
C1813      H1822   1.070       .  S
C1814      C1815   1.417       .  A
C1814      H1823   1.084       .  S
C1815      C1816   1.421   1_556  A
C1816      H1824   1.077       .  S
C1825      C1826   1.401       .  A
C1825      C1830   1.405       .  A
C1825      H1841   1.084       .  S
C1826      C1827   1.404       .  A
C1826      H1842   1.083       .  S
C1827      C1837   1.407       .  A
C1827      C1828   1.413   1_554  A
C1828      C1834   1.409       .  A
C1828      C1829   1.412       .  A
C1829      C1831   1.412       .  A
C1829      C1830   1.409   1_556  A
C1830      C1838   1.403       .  A
C1831      C1840   1.402       .  A
C1831      C1832   1.402       .  A
C1832      C1833   1.397       .  A
C1832      H1843   1.084       .  S
C1833      C1834   1.403       .  A
C1833      H1844   1.084       .  S
C1834      C1835   1.398       .  A
C1835      C1836   1.408       .  A
C1835      H1845   1.084       .  S
C1836      C1837   1.409   1_556  A
C1837      H1846   1.084       .  S
C1838      C1839   1.410   1_554  A
C1838      H1847   1.084       .  S
C1839      C1840   1.406       .  A
C1840      H1848   1.084       .  S
C1849      C1850   1.403       .  A
C1849      C1854   1.405       .  A
C1849      H1865   1.083       .  S
C1850      C1851   1.406       .  A
C1850      H1866   1.084       .  S
C1851      C1861   1.408       .  A
C1851      C1852   1.410   1_556  A
C1852      C1858   1.413       .  A
C1852      C1853   1.418       .  A
C1853      C1855   1.410       .  A
C1853      C1854   1.413   1_554  A
C1854      C1862   1.412       .  A
C1855      C1864   1.406       .  A
C1855      C1856   1.404       .  A
C1856      C1857   1.400       .  A
C1856      H1867   1.083       .  S
C1857      C1858   1.403       .  A
C1857      H1868   1.083       .  S
C1858      C1859   1.409       .  A
C1859      C1860   1.408       .  A
C1859      H1869   1.084       .  S
C1860      C1861   1.413   1_554  A
C1861      H1870   1.084       .  S
C1862      C1863   1.412       .  A
C1862      H1871   1.084       .  S
C1863      C1864   1.410   1_556  A
C1864      H1872   1.084       .  S
C1873      C1874   1.401       .  A
C1873      C1878   1.405       .  A
C1873      H1889   1.083       .  S
C1874      C1875   1.404       .  A
C1874      H1890   1.083       .  S
C1875      C1885   1.406       .  A
C1875      C1876   1.409       .  A
C1876      C1882   1.406   1_556  A
C1876      C1877   1.413       .  A
C1877      C1879   1.412   1_556  A
C1877      C1878   1.410       .  A
C1878      C1886   1.403       .  A
C1879      C1888   1.407       .  A
C1879      C1880   1.404       .  A
C1880      C1881   1.401       .  A
C1880      H1891   1.083       .  S
C1881      C1882   1.405       .  A
C1881      H1892   1.084       .  S
C1882      C1883   1.404       .  A
C1883      C1884   1.419   1_554  A
C1883      H1893   1.078       .  S
C1884      C1885   1.417       .  A
C1885      H1894   1.084       .  S
C1886      C1887   1.409       .  A
C1886      H1895   1.084       .  S
C1887      C1888   1.407   1_556  A
C1888      H1896   1.084       .  S
C1897      C1898   1.403       .  A
C1897      C1902   1.406       .  A
C1897      H1913   1.083       .  S
C1898      C1899   1.405       .  A
C1898      H1914   1.083       .  S
C1899      C1909   1.409       .  A
C1899      C1900   1.410   1_554  A
C1900      C1906   1.408       .  A
C1900      C1901   1.418       .  A
C1901      C1903   1.412       .  A
C1901      C1902   1.410   1_556  A
C1902      C1910   1.409       .  A
C1903      C1912   1.408       .  A
C1903      C1904   1.404       .  A
C1904      C1905   1.401       .  A
C1904      H1915   1.083       .  S
C1905      C1906   1.405       .  A
C1905      H1916   1.083       .  S
C1906      C1907   1.406       .  A
C1907      C1908   1.420       .  A
C1907      H1917   1.081       .  S
C1908      C1909   1.417   1_556  A
C1909      H1918   1.084       .  S
C1910      C1911   1.412   1_554  A
C1910      H1919   1.084       .  S
C1911      C1912   1.408       .  A
C1912      H1920   1.084       .  S
