geometry optimzed in LAMMPS
_audit_creation_date              2020-12-01 
_audit_creation_method            'lammps2cif' 
_symmetry_space_group_name_H-M    'P1' 
_symmetry_Int_Tables_number       1 
_symmetry_cell_setting            triclinic 
loop_ 
_symmetry_equiv_pos_as_xyz 
  x,y,z 
_cell_length_a                    23.89685471 
_cell_length_b                    23.14991513000003 
_cell_length_c                    47.121578837805416 
_cell_angle_alpha                 90.58895962477682 
_cell_angle_beta                  91.47458310160388 
_cell_angle_gamma                 91.04436455735915 
loop_ 
_atom_site_label 
_atom_site_type_symbol 
_atom_site_fract_x 
_atom_site_fract_y 
_atom_site_fract_z 
_atom_site_charge 
O1          O  0.62499741  0.80481892  0.36175537    -0.81600
O2          O  0.87508991  0.76567364  0.38017768    -0.66300
O3          O  0.71958446  0.73991124  0.35505730    -1.12900
C4          C  0.70336565  0.70401182  0.45029151     1.05300
O5          O  0.86623648  0.67686226  0.39384780    -0.79500
O6          O  0.77697244  0.61214415  0.40886533    -0.67100
Ni7        Ni  0.67930005  0.79332577  0.33334906     1.34900
C8          C  0.73200112  0.59859796  0.39555149     0.84000
O9          O  0.81706766  0.77337927  0.32910295    -0.80100
O10         O  0.73324386  0.78050152  0.30539249    -0.90300
C11         C  0.89865502  0.71973099  0.38916964     0.83600
O12         O  0.71427362  0.86574450  0.34350115    -0.68500
O13         O  0.75510239  0.68988679  0.45071040    -0.87800
C14         C  0.75624036  0.88076203  0.35893071     0.84400
C15         C  0.78591027  0.77100299  0.30680595     1.06000
H16         H  0.76954562  0.77373611  0.41372337     0.37800
O17         O  0.76869457  0.73883676  0.40228244    -1.10500
O18         O  0.69811196  0.63688877  0.38567866    -0.67100
Ni19       Ni  0.69184007  0.72207456  0.39112527     1.26300
O20         O  0.78694854  0.84333080  0.37192836    -0.67400
O21         O  0.67126909  0.70724747  0.42840753    -0.79600
C22         C  0.59097495  0.76400442  0.36719182     0.83800
O23         O  0.61158701  0.71787108  0.37808439    -0.66800
Ni24       Ni  0.81000000  0.68307445  0.42225875     1.27400
Ni25       Ni  0.79583872  0.75831571  0.36640846     1.26100
H26         H  0.71968370  0.70420211  0.34424413     0.38300
C27         C  0.80257294  0.40292857  0.24442630     0.85800
C28         C  0.78380440  0.36987744  0.21697477    -0.54500
C29         C  0.79913512  0.31290213  0.21603409     0.08700
C30         C  0.82621721  0.29277274  0.24488569     0.19600
C31         C  0.77718592  0.36989789  0.26912929    -0.55200
C32         C  0.79046715  0.31306843  0.27062205     0.08800
C33         C  0.86542660  0.38990751  0.24655256    -0.54700
C34         C  0.87750607  0.33277465  0.24661576     0.09400
H35         H  0.77230883  0.39174959  0.19761296     0.13900
H36         H  0.83651499  0.24619832  0.24525982    -0.00400
H37         H  0.75467620  0.39147754  0.28582702     0.14200
H38         H  0.89803785  0.42328996  0.24655558     0.14000
C39         C  0.20238288  0.27467502  0.22601359     0.85800
C40         C  0.13935773  0.27449314  0.22049937    -0.54500
C41         C  0.10918255  0.28192388  0.24406997     0.08700
C42         C  0.14473209  0.29020580  0.27130506     0.19600
C43         C  0.21620022  0.33152906  0.24225167    -0.55200
C44         C  0.18534002  0.34060524  0.26548417     0.08800
C45         C  0.21219931  0.22768953  0.24810772    -0.54700
C46         C  0.18238629  0.23665234  0.27242980     0.09400
H47         H  0.12001513  0.26944633  0.19944775     0.13900
H48         H  0.11977019  0.29802461  0.29047298    -0.00400
H49         H  0.24341311  0.36559889  0.23438826     0.14200
H50         H  0.24446534  0.19555530  0.24620907     0.14000
C51         C  0.80925779  0.74477406  0.28173363     0.85800
C52         C  0.79026957  0.77371962  0.25485693    -0.54500
C53         C  0.80831068  0.74644083  0.23148617     0.08700
C54         C  0.84344333  0.69317710  0.23676995     0.19600
C55         C  0.78920916  0.68171307  0.27900802    -0.55200
C56         C  0.80766812  0.65419838  0.25559477     0.08800
C57         C  0.87297855  0.74274592  0.28054176    -0.54700
C58         C  0.89117085  0.71634465  0.25643508     0.09400
H59         H  0.76365915  0.81133157  0.25421530     0.13900
H60         H  0.85548263  0.67238881  0.21668713    -0.00400
H61         H  0.76523216  0.65968580  0.29509843     0.14200
H62         H  0.90074746  0.76072493  0.29708995     0.14000
C63         C  0.17881980  0.58974777  0.26507025     0.85800
C64         C  0.12029861  0.61571734  0.26508828    -0.54500
C65         C  0.11860011  0.67267962  0.25788616     0.08700
C66         C  0.17574844  0.70093823  0.25469272     0.19600
C67         C  0.20313797  0.60665102  0.23672675    -0.55200
C68         C  0.20066521  0.66433981  0.23054574     0.08800
C69         C  0.21166286  0.62737171  0.28688717    -0.54700
C70         C  0.20555874  0.68595654  0.28339902     0.09400
H71         H  0.08253488  0.59067891  0.26918036     0.13900
H72         H  0.17484712  0.74776880  0.24994346    -0.00400
H73         H  0.21668475  0.57425007  0.22166265     0.14200
H74         H  0.22532477  0.61009328  0.30719574     0.14000
C75         C  0.39876424  0.49055363  0.38793271     0.85800
C76         C  0.36181380  0.44226935  0.37445850    -0.54500
C77         C  0.30979312  0.43777718  0.38553502     0.08700
C78         C  0.29695015  0.48610522  0.40662328     0.19600
C79         C  0.36611024  0.54566599  0.38264709    -0.55200
C80         C  0.31323896  0.54322154  0.39279643     0.08800
C81         C  0.39447936  0.48293183  0.42019084    -0.54700
C82         C  0.34144032  0.47894747  0.43022905     0.09400
H83         H  0.37906710  0.40844506  0.36132636     0.13900
H84         H  0.25273985  0.48417951  0.41266088    -0.00400
H85         H  0.38178542  0.58470228  0.37327482     0.14200
H86         H  0.43173250  0.48262217  0.43387063     0.14000
C87         C  0.31043618  0.55837789  0.08928544     0.85800
C88         C  0.37010975  0.55327460  0.10162692    -0.54500
C89         C  0.39543027  0.50212454  0.09538189     0.08700
C90         C  0.35823862  0.46346035  0.07514646     0.19600
C91         C  0.31629328  0.55149991  0.05772410    -0.55200
C92         C  0.33968806  0.50099220  0.04998209     0.08800
C93         C  0.27914533  0.50405699  0.09919411    -0.54700
C94         C  0.30527606  0.45446612  0.09194262     0.09400
H95         H  0.38976947  0.58858673  0.11349650     0.13900
H96         H  0.37545137  0.42216698  0.06792687    -0.00400
H97         H  0.30011307  0.58261998  0.04260067     0.14200
H98         H  0.24248639  0.50482865  0.11234415     0.14000
C99         C  0.72868308  0.42868326  0.39863134     0.85800
C100        C  0.74943560  0.48900393  0.38762009    -0.54500
C101        C  0.71604939  0.53516032  0.39605384     0.08700
C102        C  0.66736352  0.51556325  0.41504597     0.19600
C103        C  0.72862561  0.44027361  0.43063738    -0.55200
C104        C  0.69436739  0.48174892  0.43987987     0.08800
C105        C  0.66778128  0.42453397  0.38873182    -0.54700
C106        C  0.63596686  0.46924396  0.39709334     0.09400
H107        H  0.78792244  0.49503769  0.37620707     0.13900
H108        H  0.64045134  0.55126049  0.42217006    -0.00400
H109        H  0.75561424  0.41719416  0.44538521     0.14200
H110        H  0.65123768  0.38896870  0.37561291     0.14000
C111        C  0.62880145  0.48574754  0.10531546     0.85800
C112        C  0.65733692  0.54186784  0.11635011    -0.54500
C113        C  0.70880476  0.55272959  0.10534510     0.08700
C114        C  0.72875686  0.50318621  0.08537834     0.19600
C115        C  0.63035502  0.49184050  0.07289783    -0.55200
C116        C  0.68188031  0.49959157  0.06234483     0.08800
C117        C  0.66997278  0.43812210  0.11276411    -0.54700
C118        C  0.72228920  0.44596571  0.10225189     0.09400
H119        H  0.63626692  0.57442833  0.12854533     0.13900
H120        H  0.77107592  0.51011643  0.07668329    -0.00400
H121        H  0.59331381  0.48902716  0.05901656     0.14200
H122        H  0.65705620  0.39846557  0.12309193     0.14000
C123        C  0.54442386  0.79335151  0.14579890     0.85800
C124        C  0.53972321  0.78004036  0.17770989    -0.54500
C125        C  0.49195165  0.79889313  0.18993350     0.08700
C126        C  0.45255473  0.82999218  0.16882377     0.19600
C127        C  0.48996337  0.76760645  0.13147062    -0.55200
C128        C  0.44153704  0.78816421  0.14331412     0.08800
C129        C  0.53547251  0.85896445  0.14408849    -0.54700
C130        C  0.48815669  0.87818507  0.15601654     0.09400
H131        H  0.57320244  0.76030732  0.19001890     0.13900
H132        H  0.41393002  0.84611112  0.17862601    -0.00400
H133        H  0.48960594  0.74219650  0.11202291     0.14200
H134        H  0.56429800  0.88846962  0.13380208     0.14000
C135        C  0.55713228  0.20253161  0.13443782     0.85800
C136        C  0.50291962  0.22920948  0.12195985    -0.54500
C137        C  0.45551383  0.21407001  0.13638637     0.08700
C138        C  0.46759615  0.17549354  0.16244287     0.19600
C139        C  0.55945384  0.22206501  0.16561975    -0.55200
C140        C  0.51300448  0.20826451  0.18048166     0.08800
C141        C  0.54410076  0.13756049  0.13527871    -0.54700
C142        C  0.49757160  0.12297851  0.15003129     0.09400
H143        H  0.50151282  0.25211717  0.10202287     0.13900
H144        H  0.42970964  0.16340452  0.17436522    -0.00400
H145        H  0.59614338  0.24310438  0.17550742     0.14200
H146        H  0.56991840  0.10552012  0.12519504     0.14000
C147        C  0.42764032  0.78870508  0.36177033     0.85800
C148        C  0.44514803  0.85210102  0.36718224    -0.54500
C149        C  0.49055772  0.87082038  0.35339198     0.08700
C150        C  0.51858149  0.82290840  0.33647625     0.19600
C151        C  0.42528889  0.78227798  0.32889790    -0.55200
C152        C  0.47266396  0.80028333  0.31512589     0.08800
C153        C  0.48141474  0.75556298  0.37166679    -0.54700
C154        C  0.52994953  0.77442756  0.35856305     0.09400
H155        H  0.42036018  0.88244394  0.37909512     0.13900
H156        H  0.55740389  0.83783863  0.32647838    -0.00400
H157        H  0.38750541  0.76742511  0.31759713     0.14200
H158        H  0.48177743  0.72494109  0.38894001     0.14000
C159        C  0.50468346  0.20040584  0.30459586     0.85800
C160        C  0.49972593  0.13482141  0.30836196    -0.54500
C161        C  0.49800170  0.11680164  0.33563884     0.08700
C162        C  0.50113358  0.16639876  0.35756995     0.19600
C163        C  0.45470957  0.22402079  0.32080856    -0.55200
C164        C  0.45239253  0.20626646  0.34842611     0.08800
C165        C  0.55541551  0.21966062  0.32318246    -0.54700
C166        C  0.55553572  0.20005946  0.35060791     0.09400
H167        H  0.49831968  0.10453075  0.29055543     0.13900
H168        H  0.49931606  0.15192916  0.37993796    -0.00400
H169        H  0.42104413  0.24844111  0.31127123     0.14200
H170        H  0.59214331  0.24008915  0.31418818     0.14000
O171        O  0.36313844  0.16777546  0.35855993    -0.81600
O172        O  0.12288742  0.25276977  0.37272687    -0.66300
O173        O  0.27602228  0.24158434  0.35067617    -1.12900
C174        C  0.30693999  0.28010976  0.44810505     1.05300
O175        O  0.14861736  0.33394139  0.39355864    -0.79500
O176        O  0.24895165  0.37573162  0.40922179    -0.67100
Ni177      Ni  0.30485692  0.17845570  0.33041243     1.34900
C178        C  0.28546406  0.38024126  0.39032606     0.84000
O179        O  0.17594010  0.23495830  0.32185499    -0.80100
O180        O  0.24864667  0.18978280  0.30126260    -0.90300
C181        C  0.11059701  0.29701134  0.38754623     0.83600
O182        O  0.26216350  0.11790683  0.34659886    -0.68500
O183        O  0.25592602  0.29415603  0.45019017    -0.87800
C184        C  0.21632058  0.11716318  0.35942412     0.84400
C185        C  0.20227970  0.21675810  0.30022076     1.06000
H186        H  0.22459974  0.21824805  0.40836285     0.37800
O187        O  0.23008918  0.25386469  0.39820231    -1.10500
O188        O  0.30588154  0.33724951  0.37776863    -0.67100
Ni189      Ni  0.30625600  0.25768028  0.38749617     1.26300
O190        O  0.19036585  0.16258914  0.36633443    -0.67400
O191        O  0.33308771  0.27738090  0.42483857    -0.79600
C192        C  0.39827375  0.20890044  0.36281571     0.83800
O193        O  0.38220162  0.25530792  0.37455989    -0.66800
Ni194      Ni  0.20271900  0.31398358  0.42154251     1.27400
Ni195      Ni  0.19975056  0.24423305  0.36054853     1.26100
H196        H  0.28295847  0.27456517  0.33879442     0.38300
O197        O  0.28653827  0.87579496  0.15733505    -0.81600
O198        O  0.31244082  0.65941767  0.09451675    -0.66300
O199        O  0.24905132  0.79743378  0.11964447    -1.12900
C200        C  0.20586901  0.68278159  0.20036785     1.05300
O201        O  0.23359064  0.61477042  0.10423443    -0.79500
O202        O  0.14683560  0.66141434  0.13018805    -0.67100
Ni203      Ni  0.29200418  0.86666698  0.11763447     1.34900
C204        C  0.12596209  0.71139047  0.13112768     0.84000
O205        O  0.29976949  0.76133477  0.06893777    -0.80100
O206        O  0.29719736  0.85703034  0.07748259    -0.90300
C207        C  0.28391190  0.61347122  0.09644159     0.83600
O208        O  0.36584677  0.83983933  0.12470606    -0.68500
O209        O  0.20249135  0.64185006  0.18201172    -0.87800
C210        C  0.38559212  0.79012751  0.12848500     0.84400
C211        C  0.29868796  0.81366825  0.06041917     1.06000
H212        H  0.29463015  0.69279410  0.15385107     0.37800
O213        O  0.26124887  0.70004561  0.14253365    -1.10500
O214        O  0.15277239  0.75487143  0.14203986    -0.67100
Ni215      Ni  0.22954943  0.76898417  0.15676433     1.26300
O216        O  0.35770584  0.74436015  0.12214040    -0.67400
O217        O  0.21349357  0.73598215  0.19374126    -0.79600
C218        C  0.23826367  0.88559211  0.16609681     0.83800
O219        O  0.20447821  0.84325205  0.16928970    -0.66800
Ni220      Ni  0.21738573  0.63081765  0.14276887     1.27400
Ni221      Ni  0.28255707  0.72963557  0.10606076     1.26100
H222        H  0.21513865  0.80314264  0.10849057     0.38300
O223        O  0.74129578  0.35499719  0.08162570    -0.81600
O224        O  0.74663771  0.11525305  0.13099608    -0.66300
O225        O  0.72698301  0.27827333  0.12322187    -1.12900
C226        C  0.92905170  0.27956864  0.12974892     1.05300
O227        O  0.79948193  0.13655717  0.16821018    -0.79500
O228        O  0.83890026  0.23810767  0.18721467    -0.67100
Ni229      Ni  0.68034129  0.30705467  0.09309282     1.34900
C230        C  0.81343517  0.28580775  0.18751967     0.84000
O231        O  0.65444261  0.18465386  0.12782735    -0.80100
O232        O  0.61693900  0.26154050  0.10561476    -0.90300
C233        C  0.77888057  0.09877540  0.15103789     0.83600
O234        O  0.69676253  0.25330967  0.06298959    -0.68500
O235        O  0.92344553  0.23417070  0.14496779    -0.87800
C236        C  0.71990692  0.20434470  0.06291348     0.84400
C237        C  0.61268201  0.21618557  0.12075467     1.06000
H238        H  0.82906213  0.20197339  0.10882764     0.37800
O239        O  0.81363002  0.21585663  0.12632682    -1.10500
O240        O  0.80169554  0.31250660  0.16449449    -0.67100
Ni241      Ni  0.80617412  0.29760541  0.12353350     1.26300
O242        O  0.73602506  0.18013169  0.08583524    -0.67400
O243        O  0.88722658  0.31095485  0.12225572    -0.79600
C244        C  0.75758747  0.39397791  0.09920213     0.83800
O245        O  0.79209019  0.37970279  0.11887676    -0.66800
Ni246      Ni  0.85963179  0.18683271  0.15670451     1.27400
Ni247      Ni  0.73442728  0.19709141  0.12635381     1.26100
H248        H  0.71125927  0.29211825  0.14065718     0.38300
O249        O  0.74584279  0.23830573  0.29733140    -0.81600
O250        O  0.70704971  0.18463569  0.43131890    -0.66300
O251        O  0.71881123  0.25132269  0.35587004    -1.12900
C252        C  0.89473042  0.30822074  0.39011752     1.05300
O253        O  0.76444940  0.24624956  0.45526227    -0.79500
O254        O  0.75002930  0.33398078  0.41558040    -0.67100
Ni255      Ni  0.69724159  0.20108042  0.32471762     1.34900
C256        C  0.75493296  0.36845067  0.39467555     0.84000
O257        O  0.62977684  0.20701938  0.38705092    -0.80100
O258        O  0.64459875  0.16108238  0.34748768    -0.90300
C259        C  0.73146019  0.20278341  0.45441204     0.83600
O260        O  0.75191944  0.14753145  0.33711295    -0.68500
O261        O  0.85839820  0.33002303  0.40550622    -0.87800
C262        C  0.74484927  0.11388912  0.35825160     0.84400
C263        C  0.61135669  0.18710683  0.36322370     1.06000
H264        H  0.81158097  0.19919434  0.39824942     0.37000
O265        O  0.78978927  0.23387955  0.39702227    -1.10500
O266        O  0.77790819  0.35087349  0.37176602    -0.67100
Ni267      Ni  0.79759648  0.26986162  0.35997531     1.26300
O268        O  0.72550663  0.13417883  0.38145731    -0.67400
O269        O  0.87859487  0.28271802  0.36709642    -0.79600
C270        C  0.78025610  0.28114605  0.29805845     0.83800
O271        O  0.80238060  0.30068118  0.32154193    -0.66800
Ni272      Ni  0.80912913  0.28591589  0.42787682     1.27400
Ni273      Ni  0.71083830  0.21614555  0.39318032     1.26100
H274        H  0.69702113  0.28602467  0.35481290     0.38300
C275        C  0.68421131  0.73364891  0.47557033     0.85800
C276        C  0.70327877  0.70730650  0.00289204    -0.54500
C277        C  0.68876384  0.73914361  0.02566035     0.08700
C278        C  0.65625545  0.79444627  0.01911975     0.19600
C279        C  0.62097560  0.74105108  0.47757867    -0.55200
C280        C  0.60675665  0.77250647  0.00072509     0.08800
C281        C  0.70991091  0.79481336  0.47649075    -0.54700
C282        C  0.69382413  0.82849623  0.99860150     0.09400
H283        H  0.72851450  0.66876326  0.00419703     0.13900
H284        H  0.64328959  0.81915842  0.03806006    -0.00400
H285        H  0.59042128  0.72524149  0.46173937     0.14200
H286        H  0.74060943  0.80838709  0.46132931     0.14000
C287        C  0.71898995  0.08028211  0.00849714     0.85800
C288        C  0.65611195  0.09106947  0.00759421    -0.54500
C289        C  0.64271415  0.14767751  0.00663230     0.08700
C290        C  0.69232640  0.18960414  0.00749853     0.19600
C291        C  0.74148712  0.11383444  0.48278823    -0.55200
C292        C  0.72533256  0.16982015  0.48133584     0.08800
C293        C  0.74154328  0.11556336  0.03450913    -0.54700
C294        C  0.72487055  0.17214018  0.03510819     0.09400
H295        H  0.62456313  0.05659806  0.00645953     0.13900
H296        H  0.68016950  0.23565028  0.00675867    -0.00400
H297        H  0.76631675  0.09514432  0.46621959     0.14200
H298        H  0.76364918  0.09622942  0.05228981     0.14000
C299        C  0.29868702  0.90654086  0.99546356     0.85800
C300        C  0.27996665  0.86248710  0.47271217    -0.54500
C301        C  0.30005442  0.80803285  0.47659800     0.08700
C302        C  0.33275538  0.80176392  0.00557094     0.19600
C303        C  0.27614591  0.88096387  0.02269244    -0.55200
C304        C  0.29632635  0.82785838  0.02943583     0.08800
C305        C  0.36252351  0.90082483  0.99880428    -0.54700
C306        C  0.38038488  0.84633538  0.00323990     0.09400
H307        H  0.25956965  0.87534286  0.45295228     0.13900
H308        H  0.34654846  0.75703626  0.00975094    -0.00400
H309        H  0.25086955  0.90429406  0.03746217     0.14200
H310        H  0.39134936  0.93753702  0.99772472     0.14000
C311        C  0.33182484  0.24772981  0.47172821     0.85800
C312        C  0.39520666  0.24226317  0.47041807    -0.54500
C313        C  0.41576173  0.20522171  0.48986228     0.08700
C314        C  0.37239307  0.17656203  0.00854983     0.19600
C315        C  0.30800279  0.18617024  0.46872213    -0.55200
C316        C  0.32862755  0.14945977  0.98812123     0.08800
C317        C  0.32056096  0.26582228  0.50255828    -0.54700
C318        C  0.34255521  0.22754693  0.02181391     0.09400
H319        H  0.42160165  0.26590270  0.45591566     0.13900
H320        H  0.39059372  0.14524173  0.02376426    -0.00400
H321        H  0.27701831  0.17251418  0.45257217     0.14200
H322        H  0.29622636  0.30305619  0.50841849     0.14000
O323        O  0.23002495  0.59326517  0.38401150    -0.81600
O324        O  0.19753212  0.85624911  0.35361223    -0.66300
O325        O  0.25192316  0.70433895  0.36364486    -1.12900
C326        C  0.31395451  0.77701417  0.44979553     1.05300
O327        O  0.25761274  0.90652451  0.38197315    -0.79500
O328        O  0.33705791  0.82436877  0.37318982    -0.67100
Ni329      Ni  0.19670701  0.64439453  0.35673798     1.34900
C330        C  0.36895845  0.78099442  0.37514768     0.84000
O331        O  0.21275800  0.76496648  0.31766350    -0.80100
O332        O  0.16185405  0.68985228  0.32797509    -0.90300
C333        C  0.21613867  0.90303177  0.36477239     0.83600
O334        O  0.14691965  0.67421617  0.38445287    -0.68500
O335        O  0.33869108  0.80488432  0.43075058    -0.87800
C336        C  0.12129396  0.72178539  0.38198770     0.84400
C337        C  0.19123901  0.71660336  0.31019568     1.06000
H338        H  0.21002532  0.79559743  0.40928575     0.37800
O339        O  0.24250476  0.79123718  0.39770948    -1.10500
O340        O  0.35291495  0.73700320  0.38957411    -0.67100
Ni341      Ni  0.27497169  0.71574604  0.40217673     1.26300
O342        O  0.14322946  0.76350790  0.36797988    -0.67400
O343        O  0.29084605  0.72930223  0.44253265    -0.79600
C344        C  0.27989709  0.59495657  0.39406403     0.83800
O345        O  0.30361424  0.64064273  0.40393581    -0.66800
Ni346      Ni  0.29664854  0.85181472  0.40500267     1.27400
Ni347      Ni  0.22325296  0.78019954  0.35809676     1.26100
H348        H  0.28365919  0.69819695  0.35173928     0.38300
C349        C  0.76572950  0.05111063  0.35446417     0.85800
C350        C  0.82722019  0.05163640  0.36322148    -0.54500
C351        C  0.85709928  0.00571257  0.35413996     0.08700
C352        C  0.82131366  0.96115564  0.33700702     0.19600
C353        C  0.76222127  0.03884531  0.32256448    -0.55200
C354        C  0.79424224  0.99615609  0.31282280     0.08800
C355        C  0.74316036  0.99203828  0.36628500    -0.54700
C356        C  0.77355267  0.94400822  0.35724111     0.09400
H357        H  0.84538250  0.08652329  0.37624110     0.13900
H358        H  0.84373166  0.92419968  0.32830540    -0.00400
H359        H  0.73548109  0.06324374  0.30824573     0.14200
H360        H  0.70594545  0.98832430  0.37885415     0.14000
C361        C  0.09873457  0.00945692  0.36110848     0.85800
C362        C  0.13035187  0.95536911  0.36966019    -0.54500
C363        C  0.18343299  0.95437289  0.36028463     0.08700
C364        C  0.20181262  0.00836494  0.34405436     0.19600
C365        C  0.13571492  0.05855317  0.37381620    -0.55200
C366        C  0.18864050  0.06053008  0.36347205     0.08800
C367        C  0.10465204  0.01321777  0.32882354    -0.54700
C368        C  0.15817004  0.01213354  0.31989622     0.09400
H369        H  0.11366766  0.92072052  0.38246794     0.13900
H370        H  0.24572080  0.00719016  0.33690139    -0.00400
H371        H  0.12008714  0.09231589  0.38744101     0.14200
H372        H  0.06899647  0.01580536  0.31409996     0.14000
C373        C  0.89176251  0.98844937  0.15221652     0.85800
C374        C  0.85935278  0.04058059  0.14203972    -0.54500
C375        C  0.80510418  0.04128128  0.14999665     0.08700
C376        C  0.78703898  0.98628782  0.16663513     0.19600
C377        C  0.88276101  0.98456751  0.18429123    -0.55200
C378        C  0.82871938  0.98390981  0.19189108     0.08800
C379        C  0.85854539  0.93665834  0.13977864    -0.54700
C380        C  0.80429885  0.93317442  0.14836072     0.09400
H381        H  0.87944432  0.07721478  0.13190924     0.13900
H382        H  0.74249367  0.98585081  0.17279534    -0.00400
H383        H  0.91685479  0.98297055  0.19999975     0.14200
H384        H  0.87743985  0.90105989  0.12879399     0.14000
C385        C  0.21561500  0.04641686  0.15421625     0.85800
C386        C  0.15803591  0.03206286  0.14168733    -0.54500
C387        C  0.13093549  0.98946065  0.15540028     0.08700
C388        C  0.16442339  0.96332913  0.18016852     0.19600
C389        C  0.20771433  0.05863708  0.18576011    -0.55200
C390        C  0.18106123  0.01519618  0.19931964     0.08800
C391        C  0.24707717  0.98935663  0.15328307    -0.54700
C392        C  0.21952821  0.94542929  0.16697956     0.09400
H393        H  0.13773749  0.05764971  0.12526794     0.13900
H394        H  0.14183889  0.92807579  0.19120467    -0.00400
H395        H  0.22361397  0.09744725  0.19664526     0.14200
H396        H  0.28584503  0.98367616  0.14213661     0.14000
O397        O  0.87640961  0.67618460  0.10877187    -0.81600
O398        O  0.62027452  0.73637389  0.12213632    -0.66300
O399        O  0.77980946  0.74562800  0.10558020    -1.12900
C400        C  0.78934744  0.76229106  0.20387364     1.05300
O401        O  0.64087895  0.81855325  0.14205602    -0.79500
O402        O  0.73299512  0.86863697  0.16348280    -0.67100
Ni403      Ni  0.81590322  0.69104279  0.08211641     1.34900
C404        C  0.77865199  0.87456109  0.15093651     0.84000
O405        O  0.68140956  0.73897721  0.07407069    -0.80100
O406        O  0.75975137  0.70480916  0.05402298    -0.90300
C407        C  0.60362229  0.78143205  0.13506898     0.83600
O408        O  0.77790926  0.62217470  0.09345413    -0.68500
O409        O  0.74067308  0.78382542  0.20233852    -0.87800
C410        C  0.73058912  0.61341649  0.10431556     0.84400
C411        C  0.71089710  0.72620882  0.05306236     1.06000
H412        H  0.71770351  0.70490056  0.15967316     0.37800
O413        O  0.72515737  0.74161056  0.15079984    -1.10500
O414        O  0.80614000  0.83171653  0.14217522    -0.67100
Ni415      Ni  0.80341715  0.74890506  0.14398867     1.26300
O416        O  0.69924805  0.65432704  0.11265537    -0.67400
O417        O  0.82072313  0.75076965  0.18315373    -0.79600
C418        C  0.90622003  0.71713622  0.11955873     0.83800
O419        O  0.88285250  0.75447240  0.13514841    -0.66800
Ni420      Ni  0.69088929  0.80072069  0.17224716     1.27400
Ni421      Ni  0.70074674  0.73835286  0.11261316     1.26100
H422        H  0.78612488  0.78295351  0.09711407     0.38300
C423        C  0.96123979  0.71463095  0.39969746     0.85800
C424        C  0.97483547  0.65009593  0.40231988    -0.54500
C425        C  0.02484430  0.63844867  0.41501898     0.08700
C426        C  0.05845138  0.69242416  0.42437542     0.19600
C427        C  0.96848592  0.73783175  0.43018713    -0.55200
C428        C  0.01884726  0.72718776  0.44368100     0.08800
C429        C  0.01347254  0.73899770  0.38354128    -0.54700
C430        C  0.06508898  0.72590734  0.39645018     0.09400
H431        H  0.94758845  0.61543967  0.39402724     0.13900
H432        H  0.09953583  0.68188776  0.43419386    -0.00400
H433        H  0.93290937  0.75520937  0.44090002     0.14200
H434        H  0.01000318  0.75751445  0.36252442     0.14000
C435        C  0.02522872  0.72078636  0.06824245     0.85800
C436        C  0.07458641  0.73870289  0.08794578    -0.54500
C437        C  0.07124475  0.71992599  0.11529050     0.08700
C438        C  0.01490189  0.68607961  0.12066487     0.19600
C439        C  0.01922484  0.65502519  0.07173161    -0.55200
C440        C  0.01403452  0.63590455  0.09886746     0.08800
C441        C  0.97288589  0.74367506  0.08295897    -0.54700
C442        C  0.96569331  0.72459635  0.11014363     0.09400
H443        H  0.11268368  0.75800761  0.07983074     0.13900
H444        H  0.00970249  0.67361773  0.14305195    -0.00400
H445        H  0.01972109  0.62569950  0.05362712     0.14200
H446        H  0.93899706  0.76441064  0.07149241     0.14000
C447        C  0.95434842  0.31714622  0.40134591     0.85800
C448        C  0.95956964  0.29509868  0.43215405    -0.54500
C449        C  0.00723817  0.31158646  0.44711143     0.08700
C450        C  0.04896668  0.34377643  0.42748953     0.19600
C451        C  0.96761142  0.38224533  0.40339157    -0.55200
C452        C  0.01704007  0.39622726  0.41682782     0.08800
C453        C  0.00471350  0.29149999  0.38645327    -0.54700
C454        C  0.05481784  0.30589664  0.39998382     0.09400
H455        H  0.92665008  0.26876851  0.44102061     0.13900
H456        H  0.08949819  0.35669387  0.43784677    -0.00400
H457        H  0.94027238  0.41483906  0.39448957     0.14200
H458        H  0.00149587  0.26823726  0.36636046     0.14000
C459        C  0.08999758  0.30577361  0.11925355     0.85800
C460        C  0.03669333  0.27855421  0.13218792    -0.54500
C461        C  0.98698965  0.29568211  0.11942051     0.08700
C462        C  0.99633475  0.33657392  0.09387530     0.19600
C463        C  0.08584168  0.28955591  0.08755686    -0.55200
C464        C  0.03834698  0.30711306  0.07335656     0.08800
C465        C  0.07901242  0.37111317  0.11980021    -0.54700
C466        C  0.02994771  0.38784569  0.10714051     0.09400
H467        H  0.03817493  0.25069013  0.15057208     0.13900
H468        H  0.95622880  0.34860195  0.08364528    -0.00400
H469        H  0.11913753  0.26689685  0.07724399     0.14200
H470        H  0.10873873  0.40234235  0.12906819     0.14000
O471        O  0.24808703  0.39132599  0.11797291    -0.81600
O472        O  0.21060652  0.14362558  0.14292012    -0.66300
O473        O  0.28438110  0.28704977  0.14086493    -1.12900
C474        C  0.33327135  0.22858646  0.05218810     1.05300
O475        O  0.28345686  0.09520179  0.12647468    -0.79500
O476        O  0.37068723  0.16800862  0.12380058    -0.67100
Ni477      Ni  0.24996346  0.35396318  0.15402100     1.34900
C478        C  0.39813293  0.21512235  0.12335996     0.84000
O479        O  0.22112906  0.22908829  0.18132858    -0.80100
O480        O  0.25251890  0.31960404  0.19014356    -0.90300
C481        C  0.23839992  0.09787707  0.14015254     0.83600
O482        O  0.17199474  0.33255446  0.14811900    -0.68500
O483        O  0.34783772  0.18434702  0.06640874    -0.87800
C484        C  0.14797944  0.29281598  0.13310272     0.84400
C485        C  0.22992058  0.27247250  0.19796565     1.06000
H486        H  0.23478631  0.20354912  0.09229508     0.37800
O487        O  0.26714884  0.20625455  0.10497092    -1.10500
O488        O  0.37816951  0.26023877  0.11158918    -0.67100
Ni489      Ni  0.29981956  0.28097039  0.10219494     1.26300
O490        O  0.17310410  0.24590971  0.12766517    -0.67400
O491        O  0.31064597  0.27201469  0.06312854    -0.79600
C492        C  0.29190855  0.39837983  0.10375353     0.83800
O493        O  0.32586056  0.35777894  0.10032199    -0.66800
Ni494      Ni  0.31405730  0.14330191  0.09731627     1.27400
Ni495      Ni  0.24423692  0.21661886  0.14278736     1.26100
H496        H  0.31879702  0.28318953  0.15178496     0.38300
C497        C  0.01434740  0.30592198  0.47954231    -0.00900
C498        C  0.06838167  0.30938206  0.49224552    -0.12800
C499        C  0.07733316  0.31137670  0.02207568     0.01400
C500        C  0.03182263  0.30480907  0.04091834    -0.01000
C501        C  0.97812341  0.29923008  0.02832038    -0.12700
C502        C  0.96870470  0.30228234  0.49861890     0.01200
H503        H  0.10444565  0.31289206  0.47890664     0.14200
H504        H  0.94239578  0.29498537  0.04190847     0.14200
C505        C  0.91099631  0.30708788  0.48937382     0.35900
C506        C  0.13359612  0.32523969  0.03219163     0.35800
N507        N  0.86441254  0.31138994  0.48252599    -0.44500
N508        N  0.17880473  0.33680593  0.03997654    -0.44500
C509        C  0.01349357  0.45014566  0.10725194    -0.00900
C510        C  0.03194679  0.48544010  0.13034571    -0.12800
C511        C  0.03080888  0.54579239  0.12900286     0.01400
C512        C  0.00736829  0.57261613  0.10481832    -0.01000
C513        C  0.98096469  0.53702628  0.08386973    -0.12700
C514        C  0.98505985  0.47685979  0.08435318     0.01200
H515        H  0.05046997  0.46598433  0.14911003     0.14200
H516        H  0.95902497  0.55637700  0.06603589     0.14200
C517        C  0.96171429  0.44564030  0.06011637     0.35900
C518        C  0.05811442  0.57792026  0.15186021     0.35800
N519        N  0.94140477  0.42267295  0.04040880    -0.44500
N520        N  0.08039425  0.60323870  0.17030841    -0.44500
C521        C  0.03790411  0.45686545  0.41845425    -0.00900
C522        C  0.04852111  0.48516653  0.39293200    -0.12800
C523        C  0.05208203  0.54546116  0.39205588     0.01400
C524        C  0.04400181  0.57821671  0.41699033    -0.01000
C525        C  0.04029827  0.54989460  0.44302712    -0.12700
C526        C  0.03759696  0.48932104  0.44394024     0.01200
H527        H  0.05013154  0.46026437  0.37334626     0.14200
H528        H  0.03453615  0.57498191  0.46226844     0.14200
C529        C  0.02965388  0.46201901  0.47089997     0.35900
C530        C  0.05987589  0.57291842  0.36500461     0.35800
N531        N  0.02372283  0.44091029  0.49277365    -0.44500
N532        N  0.06639569  0.59480194  0.34333301    -0.44500
C533        C  0.03343296  0.73494960  0.03646491    -0.00900
C534        C  0.99916505  0.77416492  0.02179789    -0.12800
C535        C  0.99819187  0.77705771  0.49190261     0.01400
C536        C  0.02890692  0.73717122  0.47546848    -0.01000
C537        C  0.06823391  0.70348737  0.49035139    -0.12700
C538        C  0.07277128  0.70453498  0.02014461     0.01200
H539        H  0.97319075  0.80334676  0.03344901     0.14200
H540        H  0.09485151  0.67430967  0.47915890     0.14200
C541        C  0.11700114  0.67158872  0.03337420     0.35900
C542        C  0.96690160  0.82321053  0.47910214     0.35800
N543        N  0.15261516  0.64548991  0.04392908    -0.44500
N544        N  0.94183618  0.86038971  0.46897287    -0.44500
C545        C  0.95406234  0.99341623  0.14761643    -0.00900
C546        C  0.98322024  0.94993978  0.13319980    -0.12800
C547        C  0.04134619  0.94698573  0.13593973     0.01400
C548        C  0.07040722  0.98758817  0.15311821    -0.01000
C549        C  0.04268645  0.03375442  0.16518710    -0.12700
C550        C  0.98531214  0.03805215  0.16210816     0.01200
H551        H  0.96183624  0.91740119  0.12026093     0.14200
H552        H  0.06635501  0.06687963  0.17694447     0.14200
C553        C  0.95973984  0.08661026  0.17604850     0.35900
C554        C  0.07074388  0.90297184  0.12073286     0.35800
N555        N  0.93962376  0.12525578  0.18746242    -0.44500
N556        N  0.09517581  0.86846528  0.10847562    -0.44500
C557        C  0.17046386  0.01544184  0.28952247    -0.00900
C558        C  0.14680457  0.06064091  0.27395222    -0.12800
C559        C  0.14927551  0.06136708  0.24445237     0.01400
C560        C  0.17551059  0.01589910  0.23019626    -0.01000
C561        C  0.20046821  0.97164479  0.24567849    -0.12700
C562        C  0.19879436  0.97133765  0.27522805     0.01200
H563        H  0.12515018  0.09469948  0.28490146     0.14200
H564        H  0.22186170  0.93749588  0.23461311     0.14200
C565        C  0.22546619  0.92444514  0.28981188     0.35900
C566        C  0.12234721  0.10755868  0.22930649     0.35800
N567        N  0.24821217  0.88628799  0.30040115    -0.44500
N568        N  0.10051015  0.14446517  0.21720743    -0.44500
C569        C  0.80495252  0.99161129  0.28166029    -0.00900
C570        C  0.81759647  0.93851034  0.26885964    -0.12800
C571        C  0.82657193  0.93529868  0.23951809     0.01400
C572        C  0.81465709  0.98312778  0.22212029    -0.01000
C573        C  0.80366073  0.03604384  0.23480040    -0.12700
C574        C  0.80392913  0.04158500  0.26423906     0.01200
H575        H  0.82335606  0.90045876  0.28171265     0.14200
H576        H  0.80160843  0.07442298  0.22178613     0.14200
C577        C  0.81277633  0.09929174  0.27565850     0.35900
C578        C  0.85611287  0.88670478  0.22831963     0.35800
N579        N  0.82170590  0.14538993  0.28454216    -0.44500
N580        N  0.88291822  0.85022466  0.21911425    -0.44500
C581        C  0.91876217  0.00451157  0.35905143    -0.00900
C582        C  0.94786380  0.05770241  0.35983952    -0.12800
C583        C  0.00557827  0.06103428  0.36347152     0.01400
C584        C  0.03680408  0.01017324  0.36737006    -0.01000
C585        C  0.00730121  0.95697384  0.36701892    -0.12700
C586        C  0.94967867  0.95359569  0.36220804     0.01200
H587        H  0.92605780  0.09742954  0.35548711     0.14200
H588        H  0.02923404  0.91659748  0.36713534     0.14200
C589        C  0.92684916  0.89689349  0.35644945     0.35900
C590        C  0.03086731  0.11731042  0.36005843     0.35800
N591        N  0.91180251  0.85096955  0.34979277    -0.44500
N592        N  0.05019982  0.16293432  0.35735238    -0.44500
C593        C  0.28694167  0.96965238  0.98877798    -0.00900
C594        C  0.26524741  0.00660514  0.00964400    -0.12800
C595        C  0.27736247  0.06580480  0.00958391     0.01400
C596        C  0.31058316  0.08887033  0.98819751    -0.01000
C597        C  0.32432991  0.05447998  0.46512183    -0.12700
C598        C  0.31174304  0.99564558  0.46482149     0.01200
H599        H  0.24144179  0.99035363  0.02702710     0.14200
H600        H  0.34693096  0.07345965  0.44770679     0.14200
C601        C  0.32974101  0.96339495  0.44054353     0.35900
C602        C  0.25440174  0.10176293  0.03139470     0.35800
N603        N  0.34488071  0.93989510  0.42047444    -0.44500
N604        N  0.23457140  0.12974810  0.04879752    -0.44500
C605        C  0.58585749  0.16594144  0.00109421    -0.00900
C606        C  0.56159939  0.20355399  0.02044220    -0.12800
C607        C  0.50587451  0.21853661  0.01663645     0.01400
C608        C  0.47495460  0.19524282  0.99330853    -0.01000
C609        C  0.49999643  0.16033775  0.47315198    -0.12700
C610        C  0.55563018  0.14568330  0.47676961     0.01200
H611        H  0.58574384  0.22004356  0.03868678     0.14200
H612        H  0.47574052  0.14386389  0.45492770     0.14200
C613        C  0.58084962  0.11043757  0.45522946     0.35900
C614        C  0.48143275  0.25842677  0.03635579     0.35800
N615        N  0.60116569  0.08220361  0.43804448    -0.44500
N616        N  0.46154898  0.29087577  0.05179907    -0.44500
C617        C  0.43997671  0.83152407  0.00404708    -0.00900
C618        C  0.45941803  0.79391846  0.02513639    -0.12800
C619        C  0.51484148  0.77567924  0.02544396     0.01400
C620        C  0.55030180  0.79378562  0.00378352    -0.01000
C621        C  0.53173248  0.83274119  0.48348170    -0.12700
C622        C  0.47738069  0.85239169  0.48354216     0.01200
H623        H  0.43138112  0.77898905  0.04137396     0.14200
H624        H  0.56005059  0.84748840  0.46727784     0.14200
C625        C  0.46249769  0.89303363  0.46179774     0.35900
C626        C  0.53387136  0.73822669  0.04781675     0.35800
N627        N  0.45403221  0.92662207  0.44429709    -0.44500
N628        N  0.54845963  0.70866213  0.06610513    -0.44500
C629        C  0.70886130  0.89179633  0.00141121    -0.00900
C630        C  0.70991411  0.91846218  0.02835497    -0.12800
C631        C  0.71594815  0.97875325  0.03166012     0.01400
C632        C  0.72660782  0.01433024  0.00785122    -0.01000
C633        C  0.72677479  0.98675313  0.48103643    -0.12700
C634        C  0.71744200  0.92745692  0.47752422     0.01200
H635        H  0.70322182  0.89264237  0.04703689     0.14200
H636        H  0.72867593  0.01168287  0.46184091     0.14200
C637        C  0.71285034  0.90654867  0.44856879     0.35900
C638        C  0.70429873  0.00252288  0.05927946     0.35800
N639        N  0.71053132  0.88973713  0.42535810    -0.44500
N640        N  0.69393291  0.02101026  0.08140977    -0.44500
C641        C  0.49629622  0.93347992  0.34805973    -0.00900
C642        C  0.45346310  0.95933243  0.33204852    -0.12800
C643        C  0.45161778  0.01916820  0.32929061     0.01400
C644        C  0.49410103  0.05447056  0.34213363    -0.01000
C645        C  0.53652765  0.02886825  0.35860514    -0.12700
C646        C  0.53749694  0.96861899  0.36180654     0.01200
H647        H  0.42042421  0.93251790  0.32227690     0.14200
H648        H  0.56923852  0.05576565  0.36856179     0.14200
C649        C  0.57955637  0.94370177  0.38001242     0.35900
C650        C  0.40456115  0.04347121  0.31400858     0.35800
N651        N  0.61264835  0.92312714  0.39485915    -0.44500
N652        N  0.36672766  0.06294867  0.30190750    -0.44500
C653        C  0.51236111  0.21462962  0.21202952    -0.00900
C654        C  0.55710601  0.19220082  0.22789971    -0.12800
C655        C  0.55636089  0.19009849  0.25753377     0.01400
C656        C  0.51048419  0.21275747  0.27260930    -0.01000
C657        C  0.46739884  0.23903706  0.25645690    -0.12700
C658        C  0.46777198  0.23938630  0.22655469     0.01200
H659        H  0.59151209  0.17267086  0.21693526     0.14200
H660        H  0.43179066  0.25732018  0.26661762     0.14200
C661        C  0.42203700  0.26574040  0.21125041     0.35900
C662        C  0.60148844  0.15957099  0.27142708     0.35800
N663        N  0.38539500  0.28717541  0.19907636    -0.44500
N664        N  0.63755294  0.13435869  0.28212572    -0.44500
C665        C  0.48483983  0.79925351  0.22161610    -0.00900
C666        C  0.51560695  0.83964556  0.23823261    -0.12800
C667        C  0.51118892  0.84244924  0.26800119     0.01400
C668        C  0.47713517  0.80165454  0.28266607    -0.01000
C669        C  0.44573414  0.76141310  0.26552009    -0.12700
C670        C  0.44852454  0.76076319  0.23550648     0.01200
H671        H  0.54248844  0.87051969  0.22766604     0.14200
H672        H  0.41890258  0.72978346  0.27546888     0.14200
C673        C  0.41370260  0.72019332  0.21929714     0.35900
C674        C  0.53999775  0.89062487  0.28185433     0.35800
N675        N  0.38547972  0.68811065  0.20618106    -0.44500
N676        N  0.56396002  0.92989532  0.29197844    -0.44500
C677        C  0.47317352  0.93993116  0.15439470    -0.00900
C678        C  0.47046088  0.97283944  0.17942547    -0.12800
C679        C  0.47248472  0.03352612  0.17854553     0.01400
C680        C  0.47875696  0.06157994  0.15225058    -0.01000
C681        C  0.47482873  0.02842148  0.12714378    -0.12700
C682        C  0.47132955  0.96817485  0.12800693     0.01200
H683        H  0.47055026  0.95120605  0.19974007     0.14200
H684        H  0.47725751  0.04962388  0.10677168     0.14200
C685        C  0.46795717  0.93600917  0.10154325     0.35900
C686        C  0.47104792  0.06506187  0.20503399     0.35800
N687        N  0.46490840  0.91011173  0.08040029    -0.44500
N688        N  0.46859101  0.08882599  0.22666895    -0.44500
C689        C  0.68522308  0.48752976  0.47122891    -0.00900
C690        C  0.67570917  0.54124580  0.48418871    -0.12800
C691        C  0.67339823  0.54567958  0.01402686     0.01400
C692        C  0.68884826  0.49868831  0.03122698    -0.01000
C693        C  0.69490707  0.44481564  0.01838176    -0.12700
C694        C  0.68845014  0.43821318  0.48901395     0.01200
H695        H  0.66783281  0.57878159  0.47123350     0.14200
H696        H  0.69891539  0.40684997  0.03155428     0.14200
C697        C  0.67804424  0.38020416  0.47821812     0.35900
C698        C  0.64640928  0.59427790  0.02655571     0.35800
N699        N  0.66846157  0.33386889  0.46978031    -0.44500
N700        N  0.62194581  0.63081971  0.03720379    -0.44500
C701        C  0.45204231  0.48513683  0.10709187    -0.00900
C702        C  0.47863859  0.43709826  0.09533653    -0.12800
C703        C  0.53626114  0.43034251  0.09861202     0.01400
C704        C  0.56855188  0.47314810  0.11358788    -0.01000
C705        C  0.54027744  0.51055650  0.13165745    -0.12700
C706        C  0.48223623  0.51641539  0.12884787     0.01200
H707        H  0.45635778  0.40628542  0.08184589     0.14200
H708        H  0.56307264  0.53717891  0.14716020     0.14200
C709        C  0.45589062  0.55285954  0.14941513     0.35900
C710        C  0.56161387  0.38498553  0.08226740     0.35800
N711        N  0.43549867  0.58210983  0.16616484    -0.44500
N712        N  0.58161050  0.34983294  0.06837191    -0.44500
C713        C  0.46024430  0.48430494  0.38082989    -0.00900
C714        C  0.48305427  0.43071425  0.38873698    -0.12800
C715        C  0.53990653  0.42467948  0.39395333     0.01400
C716        C  0.57619437  0.47198690  0.38960155    -0.01000
C717        C  0.55520186  0.52309046  0.37826682    -0.12700
C718        C  0.49768141  0.52968475  0.37344950     0.01200
H719        H  0.45556757  0.39497664  0.39431035     0.14200
H720        H  0.58393203  0.55840601  0.37363213     0.14200
C721        C  0.48042884  0.58296724  0.36075443     0.35900
C722        C  0.55864403  0.37148136  0.40660777     0.35800
N723        N  0.46829534  0.62598245  0.35012876    -0.44500
N724        N  0.57344834  0.32890601  0.41677205    -0.44500
C725        C  0.33141533  0.46969458  0.46091352    -0.00900
C726        C  0.37483071  0.44478954  0.47725989    -0.12800
C727        C  0.37948723  0.45460597  0.00639984     0.01400
C728        C  0.33524992  0.48095426  0.02025080    -0.01000
C729        C  0.28617175  0.49376764  0.00470545    -0.12700
C730        C  0.28478092  0.49163358  0.47518858     0.01200
H731        H  0.40879222  0.42298945  0.46707254     0.14200
H732        H  0.25044744  0.51096656  0.01553673     0.14200
C733        C  0.23702895  0.51738780  0.46127369     0.35900
C734        C  0.43336954  0.44577938  0.01998222     0.35800
N735        N  0.19800308  0.53840731  0.45095272    -0.44500
N736        N  0.47789722  0.43983572  0.02958259    -0.44500
C737        C  0.95089488  0.71335821  0.24983820    -0.00900
C738        C  0.98782093  0.75704628  0.26068499    -0.12800
C739        C  0.04546388  0.74884078  0.26120222     0.01400
C740        C  0.06576431  0.69829273  0.24892692    -0.01000
C741        C  0.03006294  0.66278088  0.23234657    -0.12700
C742        C  0.97285858  0.66647364  0.23456017     0.01200
H743        H  0.97178930  0.79559215  0.27060278     0.14200
H744        H  0.04697439  0.62612955  0.22143826     0.14200
C745        C  0.94065270  0.61646871  0.22470670     0.35900
C746        C  0.08172418  0.79047132  0.27587399     0.35800
N747        N  0.91656316  0.57540998  0.21665904    -0.44500
N748        N  0.11042779  0.82451402  0.28741287    -0.44500
C749        C  0.17631591  0.52381137  0.26916675    -0.00900
C750        C  0.21570034  0.49576438  0.28693219    -0.12800
C751        C  0.21651384  0.43508997  0.28852845     0.01400
C752        C  0.17589239  0.40137424  0.27346966    -0.01000
C753        C  0.13482025  0.42878528  0.25747195    -0.12700
C754        C  0.13630320  0.48824264  0.25382881     0.01200
H755        H  0.24856067  0.52025346  0.29803443     0.14200
H756        H  0.10509368  0.40283677  0.24485661     0.14200
C757        C  0.09752385  0.50886951  0.23248620     0.35900
C758        C  0.26160452  0.40797842  0.30398462     0.35800
N759        N  0.06465830  0.52102869  0.21525705    -0.44500
N760        N  0.29796511  0.38590725  0.31607909    -0.44500
C761        C  0.79473858  0.46860609  0.24725127    -0.00900
C762        C  0.82361250  0.49547191  0.27048824    -0.12800
C763        C  0.82898531  0.55521281  0.27302453     0.01400
C764        C  0.80318439  0.59064268  0.25268533    -0.01000
C765        C  0.77025694  0.56518836  0.23075845    -0.12700
C766        C  0.76439237  0.50467118  0.22825082     0.01200
H767        H  0.84477510  0.46921213  0.28624594     0.14200
H768        H  0.74774270  0.59275841  0.21608739     0.14200
C769        C  0.72270610  0.48270489  0.20806428     0.35900
C770        C  0.86322652  0.57899900  0.29620765     0.35800
N771        N  0.68828539  0.46643687  0.19202121    -0.44500
N772        N  0.89063864  0.59800410  0.31476520    -0.44500
C773        C  0.93461622  0.31292424  0.24320691    -0.00900
C774        C  0.95666118  0.27394334  0.26279442    -0.12800
C775        C  0.01334053  0.26074443  0.26252073     0.01400
C776        C  0.04813943  0.28756171  0.24270358    -0.01000
C777        C  0.02477162  0.32258755  0.22159808    -0.12700
C778        C  0.96819285  0.33484530  0.22143860     0.01200
H779        H  0.93007122  0.25534464  0.27877181     0.14200
H780        H  0.05105845  0.34213745  0.20575664     0.14200
C781        C  0.94584730  0.36986573  0.19871921     0.35900
C782        C  0.03460516  0.21845361  0.28202699     0.35800
N783        N  0.92824385  0.39777242  0.18042988    -0.44500
N784        N  0.05231315  0.18409502  0.29726214    -0.44500
O785        O  0.62501328  0.80479471  0.86175760    -0.81600
O786        O  0.87509110  0.76569537  0.88016490    -0.66300
O787        O  0.71959104  0.73989136  0.85505492    -1.12900
C788        C  0.70340250  0.70399970  0.95029271     1.05300
O789        O  0.86624286  0.67687986  0.89382774    -0.79500
O790        O  0.77700212  0.61214085  0.90886487    -0.67100
Ni791      Ni  0.67929896  0.79329345  0.83334444     1.34900
C792        C  0.73202332  0.59858799  0.89555916     0.84000
O793        O  0.81706036  0.77338036  0.82909340    -0.80100
O794        O  0.73323156  0.78045102  0.80538385    -0.90300
C795        C  0.89865916  0.71975246  0.88915294     0.83600
O796        O  0.71427437  0.86572163  0.84348346    -0.68500
O797        O  0.75514261  0.68988552  0.95070816    -0.87800
C798        C  0.75623008  0.88074996  0.85891894     0.84400
C799        C  0.78590083  0.77096636  0.80679781     1.06000
H800        H  0.76955776  0.77373326  0.91371852     0.37800
O801        O  0.76870861  0.73883408  0.90227745    -1.10500
O802        O  0.69813107  0.63687388  0.88568471    -0.67100
Ni803      Ni  0.69185616  0.72205993  0.89112572     1.26300
O804        O  0.78693479  0.84332585  0.87192286    -0.67400
O805        O  0.67129994  0.70723498  0.92841044    -0.79600
C806        C  0.59099032  0.76398012  0.86719351     0.83800
O807        O  0.61160155  0.71784878  0.87808864    -0.66800
Ni808      Ni  0.81002740  0.68307963  0.92224938     1.27400
Ni809      Ni  0.79584163  0.75831544  0.86640099     1.26100
H810        H  0.71969488  0.70417891  0.84424454     0.38300
C811        C  0.80263347  0.40289565  0.74441766     0.85800
C812        C  0.78383735  0.36983915  0.71697344    -0.54500
C813        C  0.79915075  0.31286025  0.71603519     0.08700
C814        C  0.82623702  0.29273147  0.74488627     0.19600
C815        C  0.77724942  0.36988963  0.76912859    -0.55200
C816        C  0.79050823  0.31305586  0.77062587     0.08800
C817        C  0.86548332  0.38985182  0.74653639    -0.54700
C818        C  0.87754133  0.33271279  0.74660531     0.09400
H819        H  0.77235380  0.39170906  0.69760956     0.13900
H820        H  0.83651618  0.24615257  0.74526395    -0.00400
H821        H  0.75475412  0.39148681  0.78582614     0.14200
H822        H  0.89810583  0.42322177  0.74652978     0.14000
C823        C  0.20242281  0.27468664  0.72600815     0.85800
C824        C  0.13939772  0.27446220  0.72049275    -0.54500
C825        C  0.10921483  0.28188310  0.74406190     0.08700
C826        C  0.14475757  0.29019588  0.77129743     0.19600
C827        C  0.21620312  0.33155501  0.74224043    -0.55200
C828        C  0.18533922  0.34061452  0.76547314     0.08800
C829        C  0.21226445  0.22771556  0.74810755    -0.54700
C830        C  0.18244064  0.23666665  0.77242745     0.09400
H831        H  0.12006071  0.26939558  0.69944088     0.13900
H832        H  0.11979072  0.29800906  0.79046411    -0.00400
H833        H  0.24339890  0.36563801  0.73437576     0.14200
H834        H  0.24454670  0.19559785  0.74621223     0.14000
C835        C  0.80925747  0.74473277  0.78172817     0.85800
C836        C  0.79028096  0.77368415  0.75485129    -0.54500
C837        C  0.80832853  0.74640869  0.73148096     0.08700
C838        C  0.84345756  0.69314419  0.73676504     0.19600
C839        C  0.78920854  0.68167206  0.77899804    -0.55200
C840        C  0.80767663  0.65416364  0.75558474     0.08800
C841        C  0.87297984  0.74270206  0.78054127    -0.54700
C842        C  0.89117849  0.71630707  0.75643398     0.09400
H843        H  0.76367154  0.81129691  0.75420924     0.13900
H844        H  0.85550177  0.67235827  0.71668255    -0.00400
H845        H  0.76523102  0.65963954  0.79508651     0.14200
H846        H  0.90074553  0.76068125  0.79709077     0.14000
C847        C  0.17879116  0.58974789  0.76508272     0.85800
C848        C  0.12027784  0.61573594  0.76509711    -0.54500
C849        C  0.11859753  0.67269847  0.75789306     0.08700
C850        C  0.17575481  0.70094091  0.75470568     0.19600
C851        C  0.20312322  0.60664540  0.73674125    -0.55200
C852        C  0.20067066  0.66433623  0.73056032     0.08800
C853        C  0.21163636  0.62736130  0.78690253    -0.54700
C854        C  0.20555030  0.68594807  0.78341472     0.09400
H855        H  0.08250533  0.59071257  0.76918909     0.13900
H856        H  0.17486793  0.74777240  0.74995751    -0.00400
H857        H  0.21666518  0.57424007  0.72167824     0.14200
H858        H  0.22528605  0.61007585  0.80721181     0.14000
C859        C  0.39877632  0.49056573  0.88795251     0.85800
C860        C  0.36182658  0.44228918  0.87447182    -0.54500
C861        C  0.30980506  0.43779275  0.88554583     0.08700
C862        C  0.29695865  0.48611637  0.90663759     0.19600
C863        C  0.36612954  0.54568434  0.88267194    -0.55200
C864        C  0.31325396  0.54323965  0.89281688     0.08800
C865        C  0.39448455  0.48293456  0.92020983    -0.54700
C866        C  0.34144382  0.47894816  0.93024563     0.09400
H867        H  0.37908253  0.40846828  0.86133842     0.13900
H868        H  0.25274710  0.48419095  0.91267316    -0.00400
H869        H  0.38181802  0.58472797  0.87331163     0.14200
H870        H  0.43173558  0.48262370  0.93389100     0.14000
C871        C  0.31043677  0.55837372  0.58927436     0.85800
C872        C  0.37011560  0.55328613  0.60160903    -0.54500
C873        C  0.39544873  0.50214461  0.59536248     0.08700
C874        C  0.35826037  0.46347192  0.57512870     0.19600
C875        C  0.31628513  0.55150286  0.55771208    -0.55200
C876        C  0.33969126  0.50100188  0.54996625     0.08800
C877        C  0.27916426  0.50404356  0.59918335    -0.54700
C878        C  0.30530579  0.45446131  0.59192852     0.09400
H879        H  0.38976706  0.58860757  0.61347373     0.13900
H880        H  0.37547858  0.42218301  0.56790719    -0.00400
H881        H  0.30009386  0.58262286  0.54259173     0.14200
H882        H  0.24250847  0.50480324  0.61233585     0.14000
C883        C  0.72868824  0.42867401  0.89865176     0.85800
C884        C  0.74945304  0.48899054  0.88764237    -0.54500
C885        C  0.71606944  0.53515138  0.89607104     0.08700
C886        C  0.66737266  0.51556316  0.91505861     0.19600
C887        C  0.72861544  0.44026208  0.93065822    -0.55200
C888        C  0.69436055  0.48174578  0.93989642     0.08800
C889        C  0.66778972  0.42453085  0.88874610    -0.54700
C890        C  0.63597755  0.46924603  0.89710364     0.09400
H891        H  0.78794312  0.49501767  0.87623134     0.13900
H892        H  0.64046188  0.55126486  0.92217878    -0.00400
H893        H  0.75559018  0.41717516  0.94540948     0.14200
H894        H  0.65124441  0.38896248  0.87562975     0.14000
C895        C  0.62882352  0.48574527  0.60529874     0.85800
C896        C  0.65735366  0.54187286  0.61632731    -0.54500
C897        C  0.70882111  0.55273467  0.60532385     0.08700
C898        C  0.72878093  0.50318373  0.58536364     0.19600
C899        C  0.63038040  0.49182090  0.57288065    -0.55200
C900        C  0.68190633  0.49957573  0.56232877     0.08800
C901        C  0.66999740  0.43812682  0.61275476    -0.54700
C902        C  0.72231647  0.44596912  0.60224451     0.09400
H903        H  0.63628147  0.57443855  0.62851781     0.13900
H904        H  0.77110036  0.51011524  0.57666928    -0.00400
H905        H  0.59334057  0.48900015  0.55899866     0.14200
H906        H  0.65708094  0.39847430  0.62308615     0.14000
C907        C  0.54442577  0.79334271  0.64580022     0.85800
C908        C  0.53972032  0.78004613  0.67771269    -0.54500
C909        C  0.49194826  0.79890621  0.68993311     0.08700
C910        C  0.45255558  0.82999864  0.66881840     0.19600
C911        C  0.48996595  0.76759327  0.63147306    -0.55200
C912        C  0.44153887  0.78815958  0.64331239     0.08800
C913        C  0.53547762  0.85895468  0.64408253    -0.54700
C914        C  0.48816251  0.87818414  0.65600730     0.09400
H915        H  0.57319683  0.76031585  0.69002478     0.13900
H916        H  0.41393070  0.84612425  0.67861785    -0.00400
H917        H  0.48960983  0.74217297  0.61202862     0.14200
H918        H  0.56431049  0.88845458  0.63379775     0.14000
C919        C  0.55716152  0.20254416  0.63445164     0.85800
C920        C  0.50294740  0.22918821  0.62195826    -0.54500
C921        C  0.45553824  0.21404974  0.63638141     0.08700
C922        C  0.46761610  0.17550107  0.66244894     0.19600
C923        C  0.55945689  0.22211242  0.66562869    -0.55200
C924        C  0.51300236  0.20830676  0.68048754     0.08800
C925        C  0.54415409  0.13757116  0.63530814    -0.54700
C926        C  0.49762014  0.12298706  0.65005514     0.09400
H927        H  0.50154618  0.25208150  0.60201737     0.13900
H928        H  0.42972598  0.16340570  0.67436712    -0.00400
H929        H  0.59613606  0.24317044  0.67551674     0.14200
H930        H  0.56998466  0.10553034  0.62523344     0.14000
C931        C  0.42766515  0.78871156  0.86177424     0.85800
C932        C  0.44519678  0.85209941  0.86719191    -0.54500
C933        C  0.49061223  0.87080660  0.85340160     0.08700
C934        C  0.51861053  0.82289157  0.83647685     0.19600
C935        C  0.42530320  0.78229809  0.82890134    -0.55200
C936        C  0.47267974  0.80029099  0.81512770     0.08800
C937        C  0.48143029  0.75554549  0.87166378    -0.54700
C938        C  0.52996807  0.77440093  0.85855960     0.09400
H939        H  0.42041879  0.88244731  0.87910719     0.13900
H940        H  0.55743342  0.83781228  0.82647565    -0.00400
H941        H  0.38751289  0.76746191  0.81760128     0.14200
H942        H  0.48178770  0.72492085  0.88893584     0.14000
C943        C  0.50468234  0.20040079  0.80460231     0.85800
C944        C  0.49976134  0.13481342  0.80836759    -0.54500
C945        C  0.49804559  0.11678877  0.83564465     0.08700
C946        C  0.50115165  0.16638657  0.85757612     0.19600
C947        C  0.45469746  0.22398684  0.82081592    -0.55200
C948        C  0.45239279  0.20623302  0.84843346     0.08800
C949        C  0.55540614  0.21968060  0.82318909    -0.54700
C950        C  0.55553772  0.20007366  0.85061391     0.09400
H951        H  0.49837065  0.10452530  0.79056013     0.13900
H952        H  0.49934070  0.15191513  0.87994402    -0.00400
H953        H  0.42102358  0.24839910  0.81128128     0.14200
H954        H  0.59212515  0.24012604  0.81419461     0.14000
O955        O  0.36313891  0.16776302  0.85857990    -0.81600
O956        O  0.12290186  0.25278587  0.87272197    -0.66300
O957        O  0.27604568  0.24159252  0.85068326    -1.12900
C958        C  0.30694397  0.28012589  0.94811407     1.05300
O959        O  0.14863019  0.33395316  0.89355769    -0.79500
O960        O  0.24895700  0.37574289  0.90922369    -0.67100
Ni961      Ni  0.30488198  0.17845950  0.83042256     1.34900
C962        C  0.28548101  0.38025223  0.89033395     0.84000
O963        O  0.17597355  0.23496642  0.82185276    -0.80100
O964        O  0.24869365  0.18980313  0.80126527    -0.90300
C965        C  0.11060983  0.29702518  0.88754302     0.83600
O966        O  0.26216760  0.11791516  0.84659859    -0.68500
O967        O  0.25592963  0.29417400  0.95019567    -0.87800
C968        C  0.21632733  0.11717532  0.85942611     0.84400
C969        C  0.20232466  0.21677371  0.80022017     1.06000
H970        H  0.22460493  0.21826237  0.90836621     0.37800
O971        O  0.23009962  0.25387816  0.89820564    -1.10500
O972        O  0.30591144  0.33725915  0.87778153    -0.67100
Ni973      Ni  0.30627078  0.25768394  0.88750528     1.26300
O974        O  0.19037904  0.16260336  0.86633864    -0.67400
O975        O  0.33309365  0.27737720  0.92484879    -0.79600
C976        C  0.39828487  0.20887813  0.86283309     0.83800
O977        O  0.38222203  0.25529316  0.87457452    -0.66800
Ni978      Ni  0.20272574  0.31399640  0.92154458     1.27400
Ni979      Ni  0.19977040  0.24424533  0.86054940     1.26100
H980        H  0.28298890  0.27457411  0.83880296     0.38300
O981        O  0.28655677  0.87578595  0.65733311    -0.81600
O982        O  0.31243004  0.65940843  0.59451741    -0.66300
O983        O  0.24905536  0.79742331  0.61965097    -1.12900
C984        C  0.20588874  0.68277720  0.70038197     1.05300
O985        O  0.23359208  0.61474467  0.60424603    -0.79500
O986        O  0.14684845  0.66140176  0.63020486    -0.67100
Ni987      Ni  0.29200670  0.86665623  0.61763213     1.34900
C988        C  0.12597633  0.71137892  0.63114225     0.84000
O989        O  0.29975225  0.76131932  0.56893912    -0.80100
O990        O  0.29718338  0.85701635  0.57747859    -0.90300
C991        C  0.28390642  0.61345846  0.59644090     0.83600
O992        O  0.36585160  0.83982988  0.62469786    -0.68500
O993        O  0.20251538  0.64184455  0.68202640    -0.87800
C994        C  0.38559523  0.79011866  0.62848113     0.84400
C995        C  0.29866844  0.81365034  0.56041716     1.06000
H996        H  0.29464578  0.69278646  0.65385546     0.37800
O997        O  0.26126014  0.70003612  0.64254109    -1.10500
O998        O  0.15278616  0.75486130  0.64205375    -0.67100
Ni999      Ni  0.22956560  0.76897684  0.65677401     1.26300
O1000       O  0.35770758  0.74435008  0.62213953    -0.67400
O1001       O  0.21351593  0.73597727  0.69375390    -0.79600
C1002       C  0.23828629  0.88558808  0.66609879     0.83800
O1003       O  0.20450140  0.84324951  0.66929941    -0.66800
Ni1004     Ni  0.21740066  0.63080552  0.64278244     1.27400
Ni1005     Ni  0.28255364  0.72962457  0.60606519     1.26100
H1006       H  0.21513874  0.80313100  0.60850010     0.38300
O1007       O  0.74132129  0.35499286  0.58162685    -0.81600
O1008       O  0.74666670  0.11524425  0.63098603    -0.66300
O1009       O  0.72701242  0.27827007  0.62322585    -1.12900
C1010       C  0.92907881  0.27956651  0.62975011     1.05300
O1011       O  0.79952064  0.13652619  0.66819972    -0.79500
O1012       O  0.83891621  0.23807322  0.68721252    -0.67100
Ni1013     Ni  0.68036475  0.30706282  0.59310221     1.34900
C1014       C  0.81345680  0.28577584  0.68751979     0.84000
O1015       O  0.65446933  0.18465478  0.62782981    -0.80100
O1016       O  0.61696522  0.26156235  0.60563434    -0.90300
C1017       C  0.77891366  0.09875445  0.65102400     0.83600
O1018       O  0.69675397  0.25331506  0.56299422    -0.68500
O1019       O  0.92347240  0.23416973  0.64496960    -0.87800
C1020       C  0.71990627  0.20435419  0.56291334     0.84400
C1021       C  0.61270978  0.21619817  0.62076755     1.06000
H1022       H  0.82908775  0.20197008  0.60882286     0.37800
O1023       O  0.81365821  0.21585012  0.62632326    -1.10500
O1024       O  0.80172991  0.31248798  0.66449641    -0.67100
Ni1025     Ni  0.80620156  0.29760088  0.62353403     1.26300
O1026       O  0.73604377  0.18014306  0.58583228    -0.67400
O1027       O  0.88725340  0.31094999  0.62225432    -0.79600
C1028       C  0.75761492  0.39397721  0.59920073     0.83800
O1029       O  0.79211314  0.37970158  0.61887831    -0.66800
Ni1030     Ni  0.85966225  0.18681738  0.65669867     1.27400
Ni1031     Ni  0.73445544  0.19708723  0.62635226     1.26100
H1032       H  0.71129302  0.29211057  0.64066307     0.38300
O1033       O  0.74587774  0.23830037  0.79733674    -0.81600
O1034       O  0.70704665  0.18463662  0.93132075    -0.66300
O1035       O  0.71882188  0.25132656  0.85587332    -1.12900
C1036       C  0.89473940  0.30822163  0.89012021     1.05300
O1037       O  0.76446999  0.24622349  0.95526704    -0.79500
O1038       O  0.75004780  0.33397313  0.91559788    -0.67100
Ni1039     Ni  0.69725912  0.20108782  0.82471889     1.34900
C1040       C  0.75494178  0.36844450  0.89469318     0.84000
O1041       O  0.62978555  0.20703094  0.88705142    -0.80100
O1042       O  0.64460049  0.16110048  0.84748414    -0.90300
C1043       C  0.73146294  0.20277194  0.95441468     0.83600
O1044       O  0.75192575  0.14752979  0.83711748    -0.68500
O1045       O  0.85840985  0.33001480  0.90551371    -0.87800
C1046       C  0.74484478  0.11388467  0.85825376     0.84400
C1047       C  0.61136373  0.18712627  0.86322312     1.06000
H1048       H  0.81158562  0.19918504  0.89824883     0.37000
O1049       O  0.78979711  0.23387286  0.89702518    -1.10500
O1050       O  0.77791035  0.35087229  0.87178039    -0.67100
Ni1051     Ni  0.79760386  0.26986610  0.85998079     1.26300
O1052       O  0.72550127  0.13417589  0.88145904    -0.67400
O1053       O  0.87860071  0.28272145  0.86709967    -0.79600
C1054       C  0.78028282  0.28114695  0.79806449     0.83800
O1055       O  0.80238841  0.30069585  0.82154957    -0.66800
Ni1056     Ni  0.80914624  0.28589793  0.92788332     1.27400
Ni1057     Ni  0.71084454  0.21614676  0.89318247     1.26100
H1058       H  0.69703156  0.28602838  0.85481595     0.38300
C1059       C  0.68424509  0.73362616  0.97557372     0.85800
C1060       C  0.70324515  0.70733109  0.50288916    -0.54500
C1061       C  0.68873962  0.73917311  0.52565725     0.08700
C1062       C  0.65623839  0.79447908  0.51911639     0.19600
C1063       C  0.62100750  0.74101762  0.97758017    -0.55200
C1064       C  0.60673415  0.77254584  0.50072364     0.08800
C1065       C  0.70993675  0.79479372  0.97649739    -0.54700
C1066       C  0.69380802  0.82851886  0.49859568     0.09400
H1067       H  0.72847877  0.66878640  0.50419432     0.13900
H1068       H  0.64328081  0.81919793  0.53805641    -0.00400
H1069       H  0.59045768  0.72520614  0.96173907     0.14200
H1070       H  0.74064045  0.80836880  0.96133917     0.14000
C1071       C  0.71899991  0.08029336  0.50849464     0.85800
C1072       C  0.65612065  0.09107124  0.50758511    -0.54500
C1073       C  0.64271541  0.14767635  0.50662183     0.08700
C1074       C  0.69232168  0.18961139  0.50749506     0.19600
C1075       C  0.74147174  0.11381913  0.98278817    -0.55200
C1076       C  0.72532453  0.16980611  0.98133670     0.08800
C1077       C  0.74154092  0.11557605  0.53450817    -0.54700
C1078       C  0.72486068  0.17214956  0.53510719     0.09400
H1079       H  0.62457652  0.05659546  0.50644640     0.13900
H1080       H  0.68015734  0.23565535  0.50675540    -0.00400
H1081       H  0.76630091  0.09513154  0.96621898     0.14200
H1082       H  0.76365529  0.09624898  0.55228782     0.14000
C1083       C  0.29864006  0.90651530  0.49545989     0.85800
C1084       C  0.27999051  0.86251866  0.97271791    -0.54500
C1085       C  0.30006447  0.80805824  0.97660216     0.08700
C1086       C  0.33274300  0.80175169  0.50556937     0.19600
C1087       C  0.27609598  0.88092748  0.52268637    -0.55200
C1088       C  0.29629617  0.82783056  0.52943209     0.08800
C1089       C  0.36247642  0.90082453  0.49880790    -0.54700
C1090       C  0.38035771  0.84634367  0.50324365     0.09400
H1091       H  0.25959641  0.87538230  0.95295858     0.13900
H1092       H  0.34655232  0.75702992  0.50975021    -0.00400
H1093       H  0.25080276  0.90424581  0.53745318     0.14200
H1094       H  0.39128761  0.93755020  0.49773556     0.14000
C1095       C  0.33183016  0.24775957  0.97174117     0.85800
C1096       C  0.39521515  0.24231727  0.97043625    -0.54500
C1097       C  0.41577624  0.20527922  0.98988003     0.08700
C1098       C  0.37237352  0.17652153  0.50853580     0.19600
C1099       C  0.30803007  0.18619233  0.96873192    -0.55200
C1100       C  0.32859166  0.14943146  0.48811141     0.08800
C1101       C  0.32054963  0.26584346  0.00257063    -0.54700
C1102       C  0.34255830  0.22752042  0.52180088     0.09400
H1103       H  0.42160629  0.26596219  0.95593410     0.13900
H1104       H  0.39056817  0.14519692  0.52374980    -0.00400
H1105       H  0.27705300  0.17252652  0.95258013     0.14200
H1106       H  0.29619728  0.30306534  0.00842974     0.14000
O1107       O  0.23003423  0.59329129  0.88404498    -0.81600
O1108       O  0.19753841  0.85626125  0.85361835    -0.66300
O1109       O  0.25193503  0.70435312  0.86365687    -1.12900
C1110       C  0.31396907  0.77704605  0.94980003     1.05300
O1111       O  0.25762913  0.90654519  0.88197018    -0.79500
O1112       O  0.33708946  0.82439517  0.87319572    -0.67100
Ni1113     Ni  0.19671534  0.64440658  0.85676328     1.34900
C1114       C  0.36898326  0.78101474  0.87515367     0.84000
O1115       O  0.21275436  0.76496746  0.81767386    -0.80100
O1116       O  0.16185969  0.68984971  0.82799456    -0.90300
C1117       C  0.21614652  0.90304706  0.86477463     0.83600
O1118       O  0.14693102  0.67424794  0.88447490    -0.68500
O1119       O  0.33870607  0.80491825  0.93075572    -0.87800
C1120       C  0.12130238  0.72181378  0.88200099     0.84400
C1121       C  0.19123797  0.71659939  0.81021134     1.06000
H1122       H  0.21004656  0.79562125  0.90929354     0.37800
O1123       O  0.24252383  0.79125993  0.89771582    -1.10500
O1124       O  0.35293463  0.73702574  0.88958028    -0.67100
Ni1125     Ni  0.27499363  0.71576960  0.90218588     1.26300
O1126       O  0.14324012  0.76352942  0.86799021    -0.67400
O1127       O  0.29087170  0.72932906  0.94253913    -0.79600
C1128       C  0.27991478  0.59497937  0.89408638     0.83800
O1129       O  0.30364158  0.64066862  0.90394785    -0.66800
Ni1130     Ni  0.29666589  0.85184214  0.90500444     1.27400
Ni1131     Ni  0.22326234  0.78021301  0.85810507     1.26100
H1132       H  0.28366720  0.69820569  0.85174935     0.38300
C1133       C  0.76571818  0.05110239  0.85446356     0.85800
C1134       C  0.82720971  0.05162193  0.86322043    -0.54500
C1135       C  0.85708929  0.00570216  0.85413381     0.08700
C1136       C  0.82129952  0.96115128  0.83699855     0.19600
C1137       C  0.76220825  0.03884614  0.82256272    -0.55200
C1138       C  0.79422723  0.99615874  0.81281698     0.08800
C1139       C  0.74314651  0.99202592  0.86627959    -0.54700
C1140       C  0.77353754  0.94399834  0.85723115     0.09400
H1141       H  0.84537162  0.08650308  0.87624383     0.13900
H1142       H  0.84371497  0.92419633  0.82829496    -0.00400
H1143       H  0.73546225  0.06324538  0.80824723     0.14200
H1144       H  0.70593048  0.98830657  0.87884818     0.14000
C1145       C  0.09873681  0.00947080  0.86110329     0.85800
C1146       C  0.13035371  0.95538289  0.86965682    -0.54500
C1147       C  0.18343819  0.95438728  0.86028548     0.08700
C1148       C  0.20182123  0.00837992  0.84405743     0.19600
C1149       C  0.13571426  0.05856786  0.87381394    -0.55200
C1150       C  0.18864349  0.06054421  0.86347371     0.08800
C1151       C  0.10466461  0.01323501  0.82881906    -0.54700
C1152       C  0.15818632  0.01215032  0.81989618     0.09400
H1153       H  0.11366394  0.92073349  0.88246243     0.13900
H1154       H  0.24573185  0.00720571  0.83690802    -0.00400
H1155       H  0.12008600  0.09232913  0.88743912     0.14200
H1156       H  0.06901345  0.01582447  0.81409287     0.14000
C1157       C  0.89178900  0.98842471  0.65221412     0.85800
C1158       C  0.85937681  0.04054659  0.64202560    -0.54500
C1159       C  0.80512618  0.04125287  0.64998008     0.08700
C1160       C  0.78706135  0.98626861  0.66662622     0.19600
C1161       C  0.88277910  0.98456408  0.68428924    -0.55200
C1162       C  0.82873508  0.98390673  0.69188555     0.08800
C1163       C  0.85857894  0.93662402  0.63978307    -0.54700
C1164       C  0.80432910  0.93314558  0.64836100     0.09400
H1165       H  0.87946987  0.07717562  0.63189159     0.13900
H1166       H  0.74251415  0.98583131  0.67278318    -0.00400
H1167       H  0.91686910  0.98297583  0.70000021     0.14200
H1168       H  0.87747907  0.90102025  0.62880503     0.14000
C1169       C  0.21565151  0.04641748  0.65421462     0.85800
C1170       C  0.15806167  0.03207553  0.64169633    -0.54500
C1171       C  0.13096499  0.98947684  0.65541332     0.08700
C1172       C  0.16446333  0.96333931  0.68017625     0.19600
C1173       C  0.20777589  0.05863974  0.68576007    -0.55200
C1174       C  0.18112395  0.01520463  0.69932383     0.08800
C1175       C  0.24710181  0.98934947  0.65327558    -0.54700
C1176       C  0.21955502  0.94542765  0.66697800     0.09400
H1177       H  0.13775852  0.05766160  0.62527814     0.13900
H1178       H  0.14187953  0.92809224  0.69121735    -0.00400
H1179       H  0.22368449  0.09744944  0.69664248     0.14200
H1180       H  0.28586173  0.98366142  0.64212318     0.14000
O1181       O  0.87642320  0.67618637  0.60874442    -0.81600
O1182       O  0.62027977  0.73636992  0.62213542    -0.66300
O1183       O  0.77981556  0.74563370  0.60557507    -1.12900
C1184       C  0.78936891  0.76225881  0.70386830     1.05300
O1185       O  0.64088236  0.81854029  0.64206467    -0.79500
O1186       O  0.73300913  0.86861943  0.66347589    -0.67100
Ni1187     Ni  0.81590325  0.69106466  0.58209900     1.34900
C1188       C  0.77867543  0.87453676  0.65093752     0.84000
O1189       O  0.68140529  0.73900563  0.57406876    -0.80100
O1190       O  0.75974016  0.70484464  0.55401299    -0.90300
C1191       C  0.60362720  0.78141995  0.63507475     0.83600
O1192       O  0.77791709  0.62218876  0.59343154    -0.68500
O1193       O  0.74070347  0.78381264  0.70233411    -0.87800
C1194       C  0.73060001  0.61342408  0.60429487     0.84400
C1195       C  0.71088488  0.72624170  0.55305732     1.06000
H1196       H  0.71770618  0.70488156  0.65966579     0.37800
O1197       O  0.72516607  0.74159363  0.65079569    -1.10500
O1198       O  0.80616647  0.83168882  0.64218391    -0.67100
Ni1199     Ni  0.80342731  0.74887870  0.64398361     1.26300
O1200       O  0.69925769  0.65433044  0.61263946    -0.67400
O1201       O  0.82073534  0.75071657  0.68314779    -0.79600
C1202       C  0.90623296  0.71712264  0.61954636     0.83800
O1203       O  0.88286393  0.75444275  0.63514459    -0.66800
Ni1204     Ni  0.69090788  0.80070491  0.67224809     1.27400
Ni1205     Ni  0.70075163  0.73835700  0.61260966     1.26100
H1206       H  0.78613156  0.78296567  0.59711573     0.38300
C1207       C  0.96123823  0.71465688  0.89968557     0.85800
C1208       C  0.97483491  0.65012197  0.90230103    -0.54500
C1209       C  0.02483524  0.63847094  0.91500649     0.08700
C1210       C  0.05843518  0.69244253  0.92437475     0.19600
C1211       C  0.96846462  0.73784303  0.93017837    -0.55200
C1212       C  0.01881919  0.72719687  0.94367728     0.08800
C1213       C  0.01348004  0.73903508  0.88354001    -0.54700
C1214       C  0.06508956  0.72593823  0.89645510     0.09400
H1215       H  0.94759444  0.61546821  0.89399990     0.13900
H1216       H  0.09951416  0.68190253  0.93419798    -0.00400
H1217       H  0.93288166  0.75521485  0.94088828     0.14200
H1218       H  0.01002268  0.75756092  0.86252474     0.14000
C1219       C  0.02526905  0.72077696  0.56824686     0.85800
C1220       C  0.07461828  0.73869295  0.58795577    -0.54500
C1221       C  0.07126450  0.71991486  0.61530012     0.08700
C1222       C  0.01491886  0.68606735  0.62066809     0.19600
C1223       C  0.01926523  0.65501541  0.57173503    -0.55200
C1224       C  0.01406107  0.63589370  0.59887017     0.08800
C1225       C  0.97291983  0.74366431  0.58295831    -0.54700
C1226       C  0.96571377  0.72458420  0.61014150     0.09400
H1227       H  0.11271929  0.75799780  0.57984502     0.13900
H1228       H  0.00971151  0.67360205  0.64305433    -0.00400
H1229       H  0.01976979  0.62569022  0.55363056     0.14200
H1230       H  0.93903518  0.76439970  0.57148850     0.14000
C1231       C  0.95435862  0.31715526  0.90134258     0.85800
C1232       C  0.95958489  0.29511545  0.93215137    -0.54500
C1233       C  0.00724913  0.31161484  0.94710817     0.08700
C1234       C  0.04897513  0.34380167  0.92748293     0.19600
C1235       C  0.96761499  0.38225554  0.90338257    -0.55200
C1236       C  0.01704325  0.39624603  0.91681644     0.08800
C1237       C  0.00472439  0.29150967  0.88645028    -0.54700
C1238       C  0.05482884  0.30591292  0.89997952     0.09400
H1239       H  0.92667127  0.26877810  0.94101821     0.13900
H1240       H  0.08950559  0.35672608  0.93783916    -0.00400
H1241       H  0.94027108  0.41484374  0.89447935     0.14200
H1242       H  0.00150635  0.26824300  0.86635868     0.14000
C1243       C  0.09002643  0.30577105  0.61925220     0.85800
C1244       C  0.03672277  0.27855632  0.63219048    -0.54500
C1245       C  0.98701723  0.29568039  0.61942267     0.08700
C1246       C  0.99635929  0.33656442  0.59387457     0.19600
C1247       C  0.08586471  0.28954298  0.58755685    -0.55200
C1248       C  0.03836773  0.30709594  0.57335678     0.08800
C1249       C  0.07904011  0.37111093  0.61979432    -0.54700
C1250       C  0.02997299  0.38783869  0.60713539     0.09400
H1251       H  0.03820613  0.25069719  0.65057643     0.13900
H1252       H  0.95625292  0.34859313  0.58364489    -0.00400
H1253       H  0.11915760  0.26687729  0.57724518     0.14200
H1254       H  0.10876453  0.40234401  0.62906072     0.14000
O1255       O  0.24812731  0.39131457  0.61795706    -0.81600
O1256       O  0.21065026  0.14362822  0.64292195    -0.66300
O1257       O  0.28442164  0.28705328  0.64085627    -1.12900
C1258       C  0.33329159  0.22857259  0.55217668     1.05300
O1259       O  0.28347790  0.09519080  0.62645969    -0.79500
O1260       O  0.37071499  0.16798874  0.62378845    -0.67100
Ni1261     Ni  0.25000274  0.35396966  0.65400886     1.34900
C1262       C  0.39816138  0.21510250  0.62335112     0.84000
O1263       O  0.22118620  0.22909719  0.68132655    -0.80100
O1264       O  0.25255019  0.31962551  0.69013571    -0.90300
C1265       C  0.23843386  0.09787470  0.64014732     0.83600
O1266       O  0.17203359  0.33256611  0.64810762    -0.68500
O1267       O  0.34786605  0.18433964  0.56639921    -0.87800
C1268       C  0.14801341  0.29281863  0.63309937     0.84400
C1269       C  0.22996431  0.27248899  0.69796053     1.06000
H1270       H  0.23481240  0.20355310  0.59229162     0.37800
O1271       O  0.26717943  0.20625368  0.60496459    -1.10500
O1272       O  0.37820304  0.26022182  0.61158011    -0.67100
Ni1273     Ni  0.29985665  0.28096633  0.60218524     1.26300
O1274       O  0.17313715  0.24590862  0.62766678    -0.67400
O1275       O  0.31067531  0.27200540  0.56311771    -0.79600
C1276       C  0.29194956  0.39837247  0.60373908     0.83800
O1277       O  0.32590513  0.35777398  0.60030858    -0.66800
Ni1278     Ni  0.31408020  0.14329458  0.59730422     1.27400
Ni1279     Ni  0.24427934  0.21662257  0.64278339     1.26100
H1280       H  0.31883860  0.28319719  0.65177561     0.38300
C1281       C  0.01435213  0.30595992  0.97954026    -0.00900
C1282       C  0.06838201  0.30944166  0.99224765    -0.12800
C1283       C  0.07734177  0.31132379  0.52207270     0.01400
C1284       C  0.03183463  0.30477788  0.54091906    -0.01000
C1285       C  0.97813045  0.29921157  0.52832485    -0.12700
C1286       C  0.96870477  0.30230233  0.99861405     0.01200
H1287       H  0.10444884  0.31296944  0.97891174     0.14200
H1288       H  0.94240504  0.29498116  0.54191525     0.14200
C1289       C  0.91099578  0.30708744  0.98936656     0.35900
C1290       C  0.13361037  0.32517833  0.53218284     0.35800
N1291       N  0.86441072  0.31137151  0.98251754    -0.44500
N1292       N  0.17882331  0.33673967  0.53996259    -0.44500
C1293       C  0.01351097  0.45013558  0.60724869    -0.00900
C1294       C  0.03195321  0.48542470  0.63034586    -0.12800
C1295       C  0.03081655  0.54577681  0.62900565     0.01400
C1296       C  0.00738613  0.57260557  0.60481976    -0.01000
C1297       C  0.98098694  0.53701949  0.58386800    -0.12700
C1298       C  0.98508240  0.47685255  0.58434930     0.01200
H1299       H  0.05047126  0.46596430  0.64911034     0.14200
H1300       H  0.95905390  0.55637373  0.56603303     0.14200
C1301       C  0.96174494  0.44563509  0.56010997     0.35900
C1302       C  0.05812060  0.57789513  0.65186650     0.35800
N1303       N  0.94144209  0.42266923  0.54040034    -0.44500
N1304       N  0.08040474  0.60319525  0.67031930    -0.44500
C1305       C  0.03789611  0.45688767  0.91844197    -0.00900
C1306       C  0.04851842  0.48518881  0.89292002    -0.12800
C1307       C  0.05207527  0.54548404  0.89204369     0.01400
C1308       C  0.04398785  0.57823877  0.91697772    -0.01000
C1309       C  0.04027076  0.54991732  0.94301362    -0.12700
C1310       C  0.03757059  0.48934473  0.94392693     0.01200
H1311       H  0.05013743  0.46028615  0.87333478     0.14200
H1312       H  0.03449679  0.57500477  0.96225379     0.14200
C1313       C  0.02960620  0.46204551  0.97088548     0.35900
C1314       C  0.05987293  0.57294334  0.86499299     0.35800
N1315       N  0.02365565  0.44094089  0.99275858    -0.44500
N1316       N  0.06639426  0.59483045  0.84332237    -0.44500
C1317       C  0.03348014  0.73494433  0.53646953    -0.00900
C1318       C  0.99921341  0.77416106  0.52180299    -0.12800
C1319       C  0.99814805  0.77706222  0.99189743     0.01400
C1320       C  0.02886640  0.73717589  0.97546493    -0.01000
C1321       C  0.06818814  0.70348886  0.99034864    -0.12700
C1322       C  0.07281900  0.70453253  0.52014821     0.01200
H1323       H  0.97324223  0.80334513  0.53345452     0.14200
H1324       H  0.09480350  0.67430688  0.97915761     0.14200
C1325       C  0.11705459  0.67159455  0.53337792     0.35900
C1326       C  0.96686116  0.82321508  0.97909456     0.35800
N1327       N  0.15267515  0.64550511  0.54393298    -0.44500
N1328       N  0.94180007  0.86039322  0.96896146    -0.44500
C1329       C  0.95409099  0.99339236  0.64761759    -0.00900
C1330       C  0.98326007  0.94990920  0.63321097    -0.12800
C1331       C  0.04138773  0.94696941  0.63595425     0.01400
C1332       C  0.07043705  0.98758741  0.65312892    -0.01000
C1333       C  0.04270491  0.03375591  0.66518794    -0.12700
C1334       C  0.98533095  0.03804307  0.66210315     0.01200
H1335       H  0.96188359  0.91735730  0.62027700     0.14200
H1336       H  0.06636496  0.06689355  0.67694076     0.14200
C1337       C  0.95974850  0.08660980  0.67603079     0.35900
C1338       C  0.07080173  0.90295927  0.62075280     0.35800
N1339       N  0.93962434  0.12526311  0.68743434    -0.44500
N1340       N  0.09525168  0.86845957  0.60850040    -0.44500
C1341       C  0.17049404  0.01546059  0.78952418    -0.00900
C1342       C  0.14682882  0.06065068  0.77394980    -0.12800
C1343       C  0.14931607  0.06137600  0.74445067     0.01400
C1344       C  0.17557661  0.01591815  0.73019995    -0.01000
C1345       C  0.20054684  0.97167762  0.74568626    -0.12700
C1346       C  0.19885187  0.97136828  0.77523512     0.01200
H1347       H  0.12515494  0.09470095  0.78489482     0.14200
H1348       H  0.22195774  0.93753626  0.73462429     0.14200
C1349       C  0.22551744  0.92447654  0.78982274     0.35900
C1350       C  0.12237461  0.10755276  0.72929971     0.35800
N1351       N  0.24825507  0.88631753  0.80041512    -0.44500
N1352       N  0.10052525  0.14444708  0.71719725    -0.44500
C1353       C  0.80492901  0.99161268  0.78165311    -0.00900
C1354       C  0.81758769  0.93851354  0.76885480    -0.12800
C1355       C  0.82657546  0.93529979  0.73951451     0.01400
C1356       C  0.81466143  0.98312493  0.72211373    -0.01000
C1357       C  0.80364042  0.03603763  0.73479068    -0.12700
C1358       C  0.80389331  0.04158258  0.76422921     0.01200
H1359       H  0.82335000  0.90046405  0.78170891     0.14200
H1360       H  0.80158160  0.07441411  0.72177481     0.14200
C1361       C  0.81272106  0.09929312  0.77564585     0.35900
C1362       C  0.85611975  0.88670303  0.72832137     0.35800
N1363       N  0.82163790  0.14539479  0.78452745    -0.44500
N1364       N  0.88292559  0.85021612  0.71912282    -0.44500
C1365       C  0.91875613  0.00450336  0.85904116    -0.00900
C1366       C  0.94785370  0.05769748  0.85984096    -0.12800
C1367       C  0.00556868  0.06103504  0.86347454     0.01400
C1368       C  0.03680208  0.01017535  0.86736033    -0.01000
C1369       C  0.00730515  0.95697140  0.86699119    -0.12700
C1370       C  0.94968134  0.95358859  0.86218247     0.01200
H1371       H  0.92604398  0.09742656  0.85549853     0.14200
H1372       H  0.02924500  0.91659870  0.86709427     0.14200
C1373       C  0.92685889  0.89688631  0.85641427     0.35900
C1374       C  0.03084807  0.11732133  0.86008158     0.35800
N1375       N  0.91181903  0.85096275  0.84975224    -0.44500
N1376       N  0.05016944  0.16295510  0.85739264    -0.44500
C1377       C  0.28688458  0.96962420  0.48877244    -0.00900
C1378       C  0.26521465  0.00657773  0.50964473    -0.12800
C1379       C  0.27733699  0.06577602  0.50958465     0.01400
C1380       C  0.31053168  0.08884443  0.48818834    -0.01000
C1381       C  0.32440466  0.05450645  0.96513506    -0.12700
C1382       C  0.31181076  0.99567420  0.96483071     0.01200
H1383       H  0.24143459  0.99032522  0.52703661     0.14200
H1384       H  0.34701544  0.07348748  0.94772365     0.14200
C1385       C  0.32978468  0.96342876  0.94054638     0.35900
C1386       C  0.25441811  0.10172513  0.53141073     0.35800
N1387       N  0.34489535  0.93993632  0.92046915    -0.44500
N1388       N  0.23461941  0.12969485  0.54882923    -0.44500
C1389       C  0.58585656  0.16592885  0.50108003    -0.00900
C1390       C  0.56158127  0.20351378  0.52043418    -0.12800
C1391       C  0.50585083  0.21847541  0.51663016     0.01400
C1392       C  0.47494143  0.19519032  0.49329607    -0.01000
C1393       C  0.49999245  0.16036255  0.97317038    -0.12700
C1394       C  0.55562069  0.14568988  0.97678835     0.01200
H1395       H  0.58571731  0.21999698  0.53868299     0.14200
H1396       H  0.47572710  0.14388131  0.95495080     0.14200
C1397       C  0.58082600  0.11042125  0.95525266     0.35900
C1398       C  0.48139727  0.25833908  0.53635813     0.35800
N1399       N  0.60113530  0.08216916  0.93807267    -0.44500
N1400       N  0.46151154  0.29076837  0.55181065    -0.44500
C1401       C  0.43995699  0.83156080  0.50405717    -0.00900
C1402       C  0.45940431  0.79395385  0.52514469    -0.12800
C1403       C  0.51482992  0.77572140  0.52544993     0.01400
C1404       C  0.55028296  0.79382955  0.50378715    -0.01000
C1405       C  0.53175276  0.83268667  0.98347251    -0.12700
C1406       C  0.47739933  0.85233329  0.98352709     0.01200
H1407       H  0.43136981  0.77901567  0.54138142     0.14200
H1408       H  0.56007206  0.84742503  0.96726729     0.14200
C1409       C  0.46250843  0.89293740  0.96176704     0.35900
C1410       C  0.53387184  0.73827042  0.54782094     0.35800
N1411       N  0.45403675  0.92648863  0.94424988    -0.44500
N1412       N  0.54847801  0.70870663  0.56610604    -0.44500
C1413       C  0.70885543  0.89181443  0.50140471    -0.00900
C1414       C  0.70994901  0.91847138  0.52835019    -0.12800
C1415       C  0.71599420  0.97876051  0.53165774     0.01400
C1416       C  0.72662313  0.01434321  0.50784659    -0.01000
C1417       C  0.72680246  0.98673342  0.98104372    -0.12700
C1418       C  0.71747769  0.92743569  0.97753161     0.01200
H1419       H  0.70327939  0.89264500  0.54703237     0.14200
H1420       H  0.72872974  0.01165637  0.96184739     0.14200
C1421       C  0.71291974  0.90652822  0.94857473     0.35900
C1422       C  0.70438804  0.00251797  0.55928478     0.35800
N1423       N  0.71062417  0.88972661  0.92536192    -0.44500
N1424       N  0.69405775  0.02098917  0.58142316    -0.44500
C1425       C  0.49636387  0.93346385  0.84806964    -0.00900
C1426       C  0.45356067  0.95930588  0.83203444    -0.12800
C1427       C  0.45170366  0.01914026  0.82927865     0.01400
C1428       C  0.49415848  0.05445388  0.84213864    -0.01000
C1429       C  0.53655535  0.02886219  0.85863603    -0.12700
C1430       C  0.53752342  0.96861251  0.86184433     0.01200
H1431       H  0.42054451  0.93248408  0.82224732     0.14200
H1432       H  0.56923698  0.05576811  0.86861221     0.14200
C1433       C  0.57952377  0.94370639  0.88009163     0.35900
C1434       C  0.40464923  0.04343170  0.81399043     0.35800
N1435       N  0.61256163  0.92314151  0.89497386    -0.44500
N1436       N  0.36681439  0.06290195  0.80188756    -0.44500
C1437       C  0.51235148  0.21466908  0.71203576    -0.00900
C1438       C  0.55711046  0.19226615  0.72790488    -0.12800
C1439       C  0.55636307  0.19014442  0.75753821     0.01400
C1440       C  0.51047176  0.21276431  0.77261585    -0.01000
C1441       C  0.46736804  0.23901913  0.75646524    -0.12700
C1442       C  0.46774211  0.23938329  0.72656290     0.01200
H1443       H  0.59153035  0.17276433  0.71693955     0.14200
H1444       H  0.43174529  0.25726947  0.76662699     0.14200
C1445       C  0.42198676  0.26570897  0.71126190     0.35900
C1446       C  0.60150564  0.15963241  0.77142676     0.35800
N1447       N  0.38532604  0.28712268  0.69909301    -0.44500
N1448       N  0.63758378  0.13443034  0.78211929    -0.44500
C1449       C  0.48483232  0.79927384  0.72161601    -0.00900
C1450       C  0.51559706  0.83966942  0.73823182    -0.12800
C1451       C  0.51119067  0.84246575  0.76800141     0.01400
C1452       C  0.47714252  0.80166782  0.78266737    -0.01000
C1453       C  0.44574104  0.76142528  0.76552224    -0.12700
C1454       C  0.44852785  0.76077513  0.73550829     0.01200
H1455       H  0.54247431  0.87054624  0.72766444     0.14200
H1456       H  0.41891590  0.72979162  0.77547250     0.14200
C1457       C  0.41371908  0.72019080  0.71930063     0.35900
C1458       C  0.54001506  0.89063050  0.78185566     0.35800
N1459       N  0.38550862  0.68809469  0.70618578    -0.44500
N1460       N  0.56399218  0.92989200  0.79197942    -0.44500
C1461       C  0.47319955  0.93993682  0.65439137    -0.00900
C1462       C  0.47048890  0.97283031  0.67942728    -0.12800
C1463       C  0.47254084  0.03351764  0.67855839     0.01400
C1464       C  0.47880794  0.06158809  0.65226778    -0.01000
C1465       C  0.47488405  0.02844699  0.62715587    -0.12700
C1466       C  0.47138756  0.96820032  0.62800799     0.01200
H1467       H  0.47057147  0.95118305  0.69973822     0.14200
H1468       H  0.47732606  0.04966341  0.60678775     0.14200
C1469       C  0.46807479  0.93605897  0.60153639     0.35900
C1470       C  0.47116400  0.06503448  0.70505418     0.35800
N1471       N  0.46508610  0.91018735  0.58038482    -0.44500
N1472       N  0.46876681  0.08878089  0.72669652    -0.44500
C1473       C  0.68520354  0.48753161  0.97124472    -0.00900
C1474       C  0.67569498  0.54125086  0.98420300    -0.12800
C1475       C  0.67341520  0.54567116  0.51401259     0.01400
C1476       C  0.68887521  0.49867988  0.53121108    -0.01000
C1477       C  0.69494441  0.44481035  0.51836416    -0.12700
C1478       C  0.68841613  0.43821641  0.98903140     0.01200
H1479       H  0.66782696  0.57878698  0.97124675     0.14200
H1480       H  0.69896247  0.40684401  0.53153553     0.14200
C1481       C  0.67799992  0.38020825  0.97823687     0.35900
C1482       C  0.64641937  0.59426561  0.52654221     0.35800
N1483       N  0.66840987  0.33387307  0.96980086    -0.44500
N1484       N  0.62195077  0.63080666  0.53718828    -0.44500
C1485       C  0.45206522  0.48516796  0.60707275    -0.00900
C1486       C  0.47865220  0.43711051  0.59532911    -0.12800
C1487       C  0.53627460  0.43034783  0.59860279     0.01400
C1488       C  0.56857329  0.47315458  0.61357277    -0.01000
C1489       C  0.54030571  0.51058036  0.63163589    -0.12700
C1490       C  0.48226950  0.51646461  0.62882011     0.01200
H1491       H  0.45636407  0.40628445  0.58184890     0.14200
H1492       H  0.56310480  0.53720352  0.64713676     0.14200
C1493       C  0.45594906  0.55297148  0.64936933     0.35900
C1494       C  0.56161743  0.38497592  0.58226410     0.35800
N1495       N  0.43558457  0.58228100  0.66610334    -0.44500
N1496       N  0.58160196  0.34980873  0.56837273    -0.44500
C1497       C  0.46025541  0.48430964  0.88085085    -0.00900
C1498       C  0.48306295  0.43072324  0.88876617    -0.12800
C1499       C  0.53991570  0.42468717  0.89397822     0.01400
C1500       C  0.57620504  0.47198730  0.88961278    -0.01000
C1501       C  0.55521321  0.52308069  0.87826562    -0.12700
C1502       C  0.49769133  0.52967490  0.87345118     0.01200
H1503       H  0.45557438  0.39499287  0.89434794     0.14200
H1504       H  0.58394476  0.55838711  0.87361824     0.14200
C1505       C  0.48043435  0.58293601  0.86073533     0.35900
C1506       C  0.55865279  0.37149610  0.90664004     0.35800
N1507       N  0.46829471  0.62593274  0.85009319    -0.44500
N1508       N  0.57345306  0.32892441  0.91680958    -0.44500
C1509       C  0.33141577  0.46968767  0.96092992    -0.00900
C1510       C  0.37483360  0.44478657  0.97727669    -0.12800
C1511       C  0.37948400  0.45460551  0.50638331     0.01400
C1512       C  0.33525273  0.48096704  0.52023399    -0.01000
C1513       C  0.28617651  0.49378710  0.50468840    -0.12700
C1514       C  0.28477826  0.49161936  0.97520532     0.01200
H1515       H  0.40879879  0.42299192  0.96708985     0.14200
H1516       H  0.25045343  0.51099005  0.51551908     0.14200
C1517       C  0.23702608  0.51737355  0.96129081     0.35900
C1518       C  0.43335848  0.44574708  0.51996782     0.35800
N1519       N  0.19800000  0.53839416  0.95097066    -0.44500
N1520       N  0.47787887  0.43977146  0.52957134    -0.44500
C1521       C  0.95090161  0.71334143  0.74983400    -0.00900
C1522       C  0.98781431  0.75704314  0.76067879    -0.12800
C1523       C  0.04546034  0.74885933  0.76119202     0.01400
C1524       C  0.06577367  0.69831703  0.74891806    -0.01000
C1525       C  0.03008381  0.66280270  0.73233291    -0.12700
C1526       C  0.97287801  0.66647170  0.73454955     0.01200
H1527       H  0.97177116  0.79558276  0.77059733     0.14200
H1528       H  0.04700840  0.62616147  0.72142278     0.14200
C1529       C  0.94068768  0.61645964  0.72469107     0.35900
C1530       C  0.08171410  0.79050942  0.77585385     0.35800
N1531       N  0.91661256  0.57539602  0.71663823    -0.44500
N1532       N  0.11041456  0.82456870  0.78738263    -0.44500
C1533       C  0.17627901  0.52381127  0.76918095    -0.00900
C1534       C  0.21569633  0.49576413  0.78692747    -0.12800
C1535       C  0.21652027  0.43509039  0.78852009     0.01400
C1536       C  0.17588353  0.40137311  0.77347313    -0.01000
C1537       C  0.13477746  0.42878089  0.75749675    -0.12700
C1538       C  0.13624415  0.48824081  0.75385763     0.01200
H1539       H  0.24857266  0.52025487  0.79801667     0.14200
H1540       H  0.10503433  0.40282883  0.74489222     0.14200
C1541       C  0.09743017  0.50886495  0.73253000     0.35900
C1542       C  0.26163102  0.40798160  0.80396304     0.35800
N1543       N  0.06453776  0.52102364  0.71531362    -0.44500
N1544       N  0.29800439  0.38591412  0.81604946    -0.44500
C1545       C  0.79481331  0.46857431  0.74723464    -0.00900
C1546       C  0.82370413  0.49544613  0.77046456    -0.12800
C1547       C  0.82905070  0.55518750  0.77300454     0.01400
C1548       C  0.80321508  0.59060966  0.75267385    -0.01000
C1549       C  0.77028676  0.56514874  0.73074974    -0.12700
C1550       C  0.76444399  0.50463152  0.72823932     0.01200
H1551       H  0.84488795  0.46919206  0.78621734     0.14200
H1552       H  0.74775480  0.59271355  0.71608314     0.14200
C1553       C  0.72276207  0.48265728  0.70805234     0.35900
C1554       C  0.86329180  0.57898368  0.79618515     0.35800
N1555       N  0.68834835  0.46638140  0.69200723    -0.44500
N1556       N  0.89070235  0.59799588  0.81474155    -0.44500
C1557       C  0.93464172  0.31283815  0.74319127    -0.00900
C1558       C  0.95669430  0.27388283  0.76278916    -0.12800
C1559       C  0.01337600  0.26069144  0.76251770     0.01400
C1560       C  0.04816843  0.28749210  0.74269182    -0.01000
C1561       C  0.02479046  0.32248500  0.72157536    -0.12700
C1562       C  0.96820948  0.33473103  0.72141332     0.01200
H1563       H  0.93011035  0.25530552  0.77877488     0.14200
H1564       H  0.05107134  0.34202557  0.70572878     0.14200
C1565       C  0.94585371  0.36972090  0.69868488     0.35900
C1566       C  0.03465033  0.21843555  0.78204033     0.35800
N1567       N  0.92824110  0.39760312  0.68038853    -0.44500
N1568       N  0.05236293  0.18410727  0.79729115    -0.44500
loop_ 
_geom_bond_atom_site_label_1 
_geom_bond_atom_site_label_2 
_geom_bond_distance 
_geom_bond_site_symmetry_2 
_ccdc_geom_bond_type 
O1           Ni7   1.908       .  S
O1           C22   1.268       .  A
O2          Ni25   1.990       .  S
O2           C11   1.283       .  A
O3           Ni7   1.876       .  S
O3          Ni25   1.925       .  S
O3          Ni19   1.887       .  S
O3           H26   0.967       .  S
C4           O21   1.273       .  A
C4           O13   1.284       .  A
C4          C275   1.457       .  S
O5          Ni24   1.927       .  S
O5           C11   1.272       .  A
O6          Ni24   1.904       .  S
O6            C8   1.263       .  A
Ni7          O10   1.892       .  S
Ni7          O12   1.910       .  S
C8           O18   1.294       .  A
C8          C101   1.511       .  S
O9          Ni25   1.876       .  S
O9           C15   1.272       .  A
O10          C15   1.282       .  A
C11         C423   1.570       .  S
O12          C14   1.265       .  A
O13         Ni24   1.907       .  S
C14          O20   1.294       .  A
C14         C356   1.518       .  S
C15          C51   1.452       .  S
H16          O17   0.966       .  S
O17         Ni25   1.882       .  S
O17         Ni19   1.929       .  S
O17         Ni24   1.884       .  S
O18         Ni19   1.995       .  S
Ni19         O23   1.999       .  S
Ni19         O21   1.870       .  S
O20         Ni25   1.998       .  S
C22          O23   1.290       .  A
C22         C154   1.528       .  S
C27         C761   1.540       .  S
C27          C28   1.548       .  S
C27          C33   1.538       .  S
C27          C31   1.531       .  S
C28          H35   1.080       .  S
C28          C29   1.376       .  D
C29         C230   1.526       .  S
C29          C30   1.569       .  S
C30          C34   1.523       .  S
C30          C32   1.574       .  S
C30          H36   1.110       .  S
C31          H37   1.087       .  S
C31          C32   1.361       .  D
C32         C270   1.519       .  S
C33          H38   1.087       .  S
C33          C34   1.359       .  D
C34         C773   1.460       .  S
C39         C485   1.492       .  S
C39          C40   1.522       .  S
C39          C45   1.530       .  S
C39          C43   1.542       .  S
C40          H47   1.088       .  S
C40          C41   1.351       .  D
C41         C776   1.467       .  S
C41          C42   1.529       .  S
C42          C46   1.546       .  S
C42          C44   1.535       .  S
C42          H48   1.110       .  S
C43          H49   1.087       .  S
C43          C44   1.352       .  D
C44         C752   1.475       .  S
C45          H50   1.086       .  S
C45          C46   1.381       .  D
C46         C185   1.463       .  S
C51          C52   1.503       .  S
C51          C57   1.527       .  S
C51          C55   1.531       .  S
C52          H59   1.088       .  S
C52          C53   1.348       .  D
C53         C400   1.421       .  S
C53          C54   1.523       .  S
C54          C58   1.536       .  S
C54          C56   1.536       .  S
C54          H60   1.104       .  S
C55          H61   1.088       .  S
C55          C56   1.356       .  D
C56         C764   1.478       .  S
C57          H62   1.085       .  S
C57          C58   1.369       .  D
C58         C737   1.471       .  S
C63         C749   1.541       .  S
C63          C64   1.532       .  S
C63          C69   1.532       .  S
C63          C67   1.522       .  S
C64          H71   1.086       .  S
C64          C65   1.366       .  D
C65         C740   1.459       .  S
C65          C66   1.515       .  S
C66          C70   1.558       .  S
C66          C68   1.549       .  S
C66          H72   1.110       .  S
C67          H73   1.087       .  S
C67          C68   1.372       .  D
C68         C200   1.497       .  S
C69          H74   1.086       .  S
C69          C70   1.378       .  D
C70         C337   1.492       .  S
C75         C713   1.524       .  S
C75          C76   1.534       .  S
C75          C81   1.538       .  S
C75          C79   1.527       .  S
C76          H83   1.087       .  S
C76          C77   1.363       .  D
C77         C178   1.466       .  S
C77          C78   1.529       .  S
C78          C82   1.531       .  S
C78          C80   1.529       .  S
C78          H84   1.101       .  S
C79          H85   1.075       .  S
C79          C80   1.363       .  D
C80         C344   1.452       .  S
C81          H86   1.086       .  S
C81          C82   1.366       .  D
C82         C725   1.489       .  S
C87         C207   1.474       .  S
C87          C88   1.533       .  S
C87          C93   1.534       .  S
C87          C91   1.504       .  S
C88          H95   1.079       .  S
C88          C89   1.372       .  D
C89         C701   1.508       .  S
C89          C90   1.552       .  S
C90          C94   1.522       .  S
C90          C92   1.538       .  S
C90          H96   1.102       .  S
C91          H97   1.088       .  S
C91          C92   1.356       .  D
C92         C728   1.472       .  S
C93          H98   1.086       .  S
C93          C94   1.362       .  D
C94         C492   1.451       .  S
C99         C256   1.551       .  S
C99         C100   1.571       .  S
C99         C105   1.518       .  S
C99         C103   1.529       .  S
C100        H107   1.085       .  S
C100        C101   1.405       .  D
C101        C102   1.550       .  S
C102        C106   1.532       .  S
C102        C104   1.548       .  S
C102        H108   1.111       .  S
C103        H109   1.087       .  S
C103        C104   1.349       .  D
C104        C689   1.504       .  S
C105        H110   1.087       .  S
C105        C106   1.357       .  D
C106        C716   1.465       .  S
C111        C704   1.525       .  S
C111        C112   1.536       .  S
C111        C117   1.529       .  S
C111        C115   1.537       .  S
C112        H119   1.082       .  S
C112        C113   1.367       .  D
C113        C410   1.491       .  S
C113        C114   1.565       .  S
C114        C118   1.559       .  S
C114        C116   1.540       .  S
C114        H120   1.110       .  S
C115        H121   1.088       .  S
C115        C116   1.349       .  D
C116        C692   1.480       .  S
C117        H122   1.087       .  S
C117        C118   1.366       .  D
C118        C244   1.490       .  S
C123        C407   1.543       .  S
C123        C124   1.545       .  S
C123        C129   1.540       .  S
C123        C127   1.557       .  S
C124        H131   1.086       .  S
C124        C125   1.368       .  D
C125        C665   1.507       .  S
C125        C126   1.544       .  S
C126        C130   1.529       .  S
C126        C128   1.550       .  S
C126        H132   1.112       .  S
C127        H133   1.084       .  S
C127        C128   1.387       .  D
C128        C210   1.494       .  S
C129        H134   1.088       .  S
C129        C130   1.356       .  D
C130        C677   1.482       .  S
C135        C237   1.520       .  S
C135        C136   1.550       .  S
C135        C141   1.532       .  S
C135        C139   1.532       .  S
C136        H143   1.084       .  S
C136        C137   1.378       .  D
C137        C478   1.489       .  S
C137        C138   1.550       .  S
C138        C142   1.540       .  S
C138        C140   1.544       .  S
C138        H144   1.111       .  S
C139        H145   1.087       .  S
C139        C140   1.362       .  D
C140        C653   1.493       .  S
C141        H146   1.087       .  S
C141        C142   1.365       .  D
C142        C680   1.488       .  S
C147        C330   1.560       .  S
C147        C148   1.536       .  S
C147        C153   1.572       .  S
C147        C151   1.554       .  S
C148        H155   1.088       .  S
C148        C149   1.346       .  D
C149        C641   1.479       .  S
C149        C150   1.533       .  S
C150        C154   1.561       .  S
C150        C152   1.550       .  S
C150        H156   1.103       .  S
C151        H157   1.085       .  S
C151        C152   1.379       .  D
C152        C668   1.537       .  S
C153        H158   1.085       .  S
C153        C154   1.393       .  D
C159        C656   1.546       .  S
C159        C160   1.533       .  S
C159        C165   1.534       .  S
C159        C163   1.540       .  S
C160        H167   1.087       .  S
C160        C161   1.357       .  D
C161        C644   1.480       .  S
C161        C162   1.536       .  S
C162        C166   1.548       .  S
C162        C164   1.554       .  S
C162        H168   1.111       .  S
C163        H169   1.083       .  S
C163        C164   1.371       .  D
C164        C192   1.478       .  S
C165        H170   1.087       .  S
C165        C166   1.374       .  D
C166        C263   1.483       .  S
O171       Ni177   1.919       .  S
O171        C192   1.269       .  A
O172       Ni195   1.951       .  S
O172        C181   1.277       .  A
O173       Ni177   1.888       .  S
O173       Ni195   1.895       .  S
O173       Ni189   1.893       .  S
O173        H196   0.966       .  S
C174        O191   1.277       .  A
C174        O183   1.273       .  A
C174        C311   1.468       .  S
O175       Ni194   1.890       .  S
O175        C181   1.261       .  A
O176       Ni194   1.896       .  S
O176        C178   1.266       .  A
Ni177       O180   1.920       .  S
Ni177       O182   1.897       .  S
C178        O188   1.265       .  A
O179       Ni195   1.905       .  S
O179        C185   1.283       .  A
O180        C185   1.282       .  A
C181        C454   1.487       .  S
O182        C184   1.265       .  A
O183       Ni194   1.896       .  S
C184        O190   1.274       .  A
C184        C366   1.474       .  S
H186        O187   0.966       .  S
O187       Ni195   1.909       .  S
O187       Ni189   1.902       .  S
O187       Ni194   1.901       .  S
O188       Ni189   1.903       .  S
Ni189       O193   1.931       .  S
Ni189       O191   1.905       .  S
O190       Ni195   1.922       .  S
C192        O193   1.273       .  A
O197       Ni203   1.889       .  S
O197        C218   1.259       .  A
O198       Ni221   1.869       .  S
O198        C207   1.258       .  A
O199       Ni203   1.892       .  S
O199       Ni221   1.888       .  S
O199       Ni215   1.940       .  S
O199        H222   0.966       .  S
C200        O217   1.285       .  A
C200        O209   1.276       .  A
O201       Ni220   1.901       .  S
O201        C207   1.267       .  A
O202       Ni220   1.923       .  S
O202        C204   1.269       .  A
Ni203       O206   1.910       .  S
Ni203       O208   1.904       .  S
C204        O214   1.279       .  A
C204        C437   1.506       .  S
O205       Ni221   1.955       .  S
O205        C211   1.281       .  A
O206        C211   1.281       .  A
O208        C210   1.264       .  A
O209       Ni220   1.908       .  S
C210        O216   1.270       .  A
C211        C304   1.500       .  S
H212        O213   0.966       .  S
O213       Ni221   1.934       .  S
O213       Ni215   1.902       .  S
O213       Ni220   1.899       .  S
O214       Ni215   1.965       .  S
Ni215       O219   1.923       .  S
Ni215       O217   1.954       .  S
O216       Ni221   1.954       .  S
C218        O219   1.271       .  A
C218        C392   1.464       .  S
O223       Ni229   1.908       .  S
O223        C244   1.268       .  A
O224       Ni247   1.936       .  S
O224        C233   1.270       .  A
O225       Ni229   1.915       .  S
O225       Ni247   1.898       .  S
O225       Ni241   1.936       .  S
O225        H248   0.966       .  S
C226        O243   1.290       .  A
C226        O235   1.285       .  A
C226        C461   1.521       .  S
O227       Ni246   1.925       .  S
O227        C233   1.269       .  A
O228       Ni246   1.935       .  S
O228        C230   1.271       .  A
Ni229       O232   1.938       .  S
Ni229       O234   1.930       .  S
C230        O240   1.282       .  A
O231       Ni247   1.931       .  S
O231        C237   1.286       .  A
O232        C237   1.279       .  A
C233        C375   1.482       .  S
O234        C236   1.270       .  A
O235       Ni246   1.956       .  S
C236        O242   1.276       .  A
C236        C294   1.509       .  S
H238        O239   0.966       .  S
O239       Ni247   1.934       .  S
O239       Ni241   1.910       .  S
O239       Ni246   1.917       .  S
O240       Ni241   1.963       .  S
Ni241       O245   1.950       .  S
Ni241       O243   1.958       .  S
O242       Ni247   1.947       .  S
C244        O245   1.275       .  A
O249       Ni255   1.955       .  S
O249        C270   1.276       .  A
O250       Ni273   1.950       .  S
O250        C259   1.284       .  A
O251       Ni255   1.918       .  S
O251       Ni273   1.957       .  S
O251       Ni267   1.928       .  S
O251        H274   0.966       .  S
C252        O269   1.277       .  A
C252        O261   1.255       .  A
C252        C447   1.517       .  S
O253       Ni272   1.926       .  S
O253        C259   1.267       .  A
O254       Ni272   1.897       .  S
O254        C256   1.280       .  A
Ni255       O258   1.908       .  S
Ni255       O260   1.903       .  S
C256        O266   1.289       .  A
O257       Ni273   1.958       .  S
O257        C263   1.274       .  A
O258        C263   1.258       .  A
C259        C292   1.496       .  S
O260        C262   1.283       .  A
O261       Ni272   1.893       .  S
C262        O268   1.286       .  A
C262        C349   1.555       .  S
H264        O265   0.966       .  S
O265       Ni273   1.927       .  S
O265       Ni267   1.954       .  S
O265       Ni272   1.920       .  S
O266       Ni267   2.018       .  S
Ni267       O271   1.959       .  S
Ni267       O269   1.973       .  S
O268       Ni273   2.010       .  S
C270        O271   1.288       .  A
C275        C281   1.533       .  S
C275        C279   1.529       .  S
C275       C1060   1.494       .  S
C276       C1059   1.494   1_554  S
C276        H283   1.087       .  S
C276        C277   1.352       .  D
C277        C411   1.420       .  S
C277        C278   1.539       .  S
C278        C282   1.548   1_554  S
C278        C280   1.525       .  S
C278        H284   1.109       .  S
C279        H285   1.087       .  S
C279       C1064   1.360       .  D
C280        C620   1.455       .  S
C280       C1063   1.360   1_554  D
C281        H286   1.082       .  S
C281       C1066   1.363       .  D
C282        C629   1.506   1_556  S
C282       C1065   1.363       .  D
C287        C632   1.541       .  S
C287        C288   1.527       .  S
C287        C293   1.546       .  S
C287       C1075   1.548   1_554  S
C288        H295   1.088       .  S
C288        C289   1.356       .  D
C289        C605   1.448       .  S
C289        C290   1.518       .  S
C290        C294   1.559       .  S
C290       C1076   1.550   1_554  S
C290        H296   1.111       .  S
C291       C1071   1.548       .  S
C291        H297   1.084       .  S
C291        C292   1.361       .  D
C292       C1074   1.550       .  S
C293        H298   1.084       .  S
C293        C294   1.376       .  D
C299        C593   1.527       .  S
C299        C305   1.538       .  S
C299        C303   1.525   1_556  S
C299       C1084   1.524       .  S
C300       C1083   1.524       .  S
C300        H307   1.087       .  S
C300        C301   1.369       .  D
C301        C326   1.494       .  S
C301       C1086   1.565       .  S
C302        C306   1.529       .  S
C302        C304   1.563       .  S
C302       C1085   1.565   1_554  S
C302        H308   1.110       .  S
C303        H309   1.080       .  S
C303        C304   1.366       .  D
C305        H310   1.087       .  S
C305        C306   1.356   1_556  D
C306        C617   1.470       .  S
C311        C312   1.525       .  S
C311        C317   1.540       .  S
C311        C315   1.529       .  S
C312        H319   1.087       .  S
C312        C313   1.351       .  D
C313       C1392   1.443       .  S
C313       C1098   1.525       .  S
C314        C318   1.527       .  S
C314        C316   1.525   1_554  S
C314       C1097   1.525   1_554  S
C314        H320   1.111       .  S
C315        H321   1.089       .  S
C315       C1100   1.345       .  D
C316        C596   1.460       .  S
C316       C1099   1.345       .  D
C317        H322   1.086       .  S
C317       C1102   1.376       .  D
C318        C474   1.454       .  S
C318       C1101   1.376       .  D
O323       Ni329   1.923       .  S
O323        C344   1.271       .  A
O324       Ni347   1.887       .  S
O324        C333   1.267       .  A
O325       Ni329   1.917       .  S
O325       Ni347   1.915       .  S
O325       Ni341   1.898       .  S
O325        H348   0.967       .  S
C326        O343   1.266       .  A
C326        O335   1.263       .  A
O327       Ni346   1.916       .  S
O327        C333   1.265       .  A
O328       Ni346   1.913       .  S
O328        C330   1.274       .  A
Ni329       O332   1.908       .  S
Ni329       O334   1.921       .  S
C330        O340   1.288       .  A
O331       Ni347   1.943       .  S
O331        C337   1.266       .  A
O332        C337   1.266       .  A
C333        C363   1.449       .  S
O334        C336   1.275       .  A
O335       Ni346   1.915       .  S
C336        O342   1.287       .  A
C336        C430   1.526       .  S
H338        O339   0.966       .  S
O339       Ni347   1.924       .  S
O339       Ni341   1.936       .  S
O339       Ni346   1.913       .  S
O340       Ni341   2.023       .  S
Ni341       O345   1.882       .  S
Ni341       O343   1.951       .  S
O342       Ni347   2.011       .  S
C344        O345   1.269       .  A
C349        C350   1.516       .  S
C349        C355   1.573   1_545  S
C349        C353   1.527       .  S
C350        H357   1.086       .  S
C350        C351   1.363       .  D
C351        C581   1.487       .  S
C351        C352   1.537   1_545  S
C352        C356   1.555       .  S
C352        C354   1.541       .  S
C352        H358   1.099       .  S
C353        H359   1.087       .  S
C353        C354   1.345   1_545  D
C354        C569   1.500       .  S
C355        H360   1.084       .  S
C355        C356   1.407       .  D
C361        C584   1.517       .  S
C361        C362   1.527   1_545  S
C361        C367   1.535       .  S
C361        C365   1.534       .  S
C362        H369   1.085       .  S
C362        C363   1.354       .  D
C363        C364   1.535   1_565  S
C364        C368   1.528       .  S
C364        C366   1.549       .  S
C364        H370   1.111       .  S
C365        H371   1.084       .  S
C365        C366   1.367       .  D
C367        H372   1.088       .  S
C367        C368   1.357       .  D
C368        C557   1.471       .  S
C373        C545   1.512       .  S
C373        C374   1.521   1_565  S
C373        C379   1.529       .  S
C373        C377   1.535       .  S
C374        H381   1.088       .  S
C374        C375   1.359       .  D
C375        C376   1.562   1_545  S
C376        C380   1.562       .  S
C376        C378   1.534       .  S
C376        H382   1.110       .  S
C377        H383   1.088       .  S
C377        C378   1.349       .  D
C378        C572   1.472       .  S
C379        H384   1.081       .  S
C379        C380   1.369       .  D
C380        C404   1.486       .  S
C385        C481   1.472       .  S
C385        C386   1.513       .  S
C385        C391   1.533   1_545  S
C385        C389   1.527       .  S
C386        H393   1.089       .  S
C386        C387   1.349   1_545  D
C387        C548   1.447       .  S
C387        C388   1.534       .  S
C388        C392   1.533       .  S
C388        C390   1.535   1_565  S
C388        H394   1.111       .  S
C389        H395   1.088       .  S
C389        C390   1.355       .  D
C390        C560   1.464       .  S
C391        H396   1.086       .  S
C391        C392   1.377       .  D
O397       Ni403   1.929       .  S
O397        C418   1.269       .  A
O398       Ni421   1.986       .  S
O398        C407   1.278       .  A
O399       Ni403   1.903       .  S
O399       Ni421   1.931       .  S
O399       Ni415   1.882       .  S
O399        H422   0.966       .  S
C400        O417   1.275       .  A
C400        O409   1.274       .  A
O401       Ni420   1.888       .  S
O401        C407   1.261       .  A
O402       Ni420   1.906       .  S
O402        C404   1.260       .  A
Ni403       O406   1.894       .  S
Ni403       O408   1.908       .  S
C404        O414   1.271       .  A
O405       Ni421   1.863       .  S
O405        C411   1.265       .  A
O406        C411   1.276       .  A
O408        C410   1.267       .  A
O409       Ni420   1.876       .  S
C410        O416   1.283       .  A
H412        O413   0.967       .  S
O413       Ni421   1.878       .  S
O413       Ni415   1.910       .  S
O413       Ni420   1.902       .  S
O414       Ni415   1.920       .  S
Ni415       O419   1.956       .  S
Ni415       O417   1.881       .  S
O416       Ni421   1.945       .  S
C418        O419   1.274       .  A
C418        C442   1.507       .  S
C423        C424   1.540       .  S
C423        C429   1.577   1_655  S
C423        C427   1.533       .  S
C424        H431   1.087       .  S
C424        C425   1.355   1_655  D
C425        C524   1.479       .  S
C425        C426   1.528       .  S
C426        C430   1.544       .  S
C426        C428   1.558       .  S
C426        H432   1.107       .  S
C427        H433   1.082       .  S
C427        C428   1.374   1_655  D
C428        C536   1.526       .  S
C429        H434   1.085       .  S
C429        C430   1.401       .  D
C435        C533   1.553       .  S
C435        C436   1.531       .  S
C435        C441   1.545   1_455  S
C435        C439   1.537       .  S
C436        H443   1.087       .  S
C436        C437   1.368       .  D
C437        C438   1.573       .  S
C438        C442   1.562   1_455  S
C438        C440   1.542       .  S
C438        H444   1.106       .  S
C439        H445   1.085       .  S
C439        C440   1.365       .  D
C440        C512   1.501       .  S
C441        H446   1.084       .  S
C441        C442   1.373       .  D
C447        C448   1.547       .  S
C447        C453   1.534   1_655  S
C447        C451   1.536       .  S
C448        H455   1.081       .  S
C448        C449   1.370   1_655  D
C449        C497   1.540       .  S
C449        C450   1.562       .  S
C450        C454   1.568       .  S
C450        C452   1.528       .  S
C450        H456   1.108       .  S
C451        H457   1.087       .  S
C451        C452   1.358   1_655  D
C452        C521   1.482       .  S
C453        H458   1.085       .  S
C453        C454   1.376       .  D
C459        C484   1.552       .  S
C459        C460   1.552       .  S
C459        C465   1.540       .  S
C459        C463   1.537       .  S
C460        H467   1.086       .  S
C460        C461   1.384   1_455  D
C461        C462   1.557       .  S
C462        C466   1.539   1_655  S
C462        C464   1.571   1_655  S
C462        H468   1.103       .  S
C463        H469   1.084       .  S
C463        C464   1.373       .  D
C464        C500   1.533       .  S
C465        H470   1.085       .  S
C465        C466   1.366       .  D
C466        C509   1.502       .  S
O471       Ni477   1.914       .  S
O471        C492   1.267       .  A
O472       Ni495   1.858       .  S
O472        C481   1.268       .  A
O473       Ni477   1.874       .  S
O473       Ni495   1.881       .  S
O473       Ni489   1.873       .  S
O473        H496   0.965       .  S
C474        O491   1.262       .  A
C474        O483   1.278       .  A
O475       Ni494   1.928       .  S
O475        C481   1.271       .  A
O476       Ni494   1.894       .  S
O476        C478   1.263       .  A
Ni477       O480   1.886       .  S
Ni477       O482   1.932       .  S
C478        O488   1.282       .  A
O479       Ni495   1.932       .  S
O479        C485   1.279       .  A
O480        C485   1.271       .  A
O482        C484   1.274       .  A
O483       Ni494   1.933       .  S
C484        O490   1.277       .  A
H486        O487   0.966       .  S
O487       Ni495   1.892       .  S
O487       Ni489   1.892       .  S
O487       Ni494   1.892       .  S
O488       Ni489   1.981       .  S
Ni489       O493   1.877       .  S
Ni489       O491   1.875       .  S
O490       Ni495   1.961       .  S
C492        O493   1.265       .  A
C497        C498   1.410       .  A
C497        C502   1.433   1_455  A
C498       C1283   1.416       .  A
C498        H503   1.082       .  S
C499        C500   1.429       .  A
C499       C1282   1.416   1_554  A
C499        C506   1.444       .  S
C500        C501   1.403   1_455  A
C501       C1286   1.415   1_554  A
C501        H504   1.084       .  S
C502       C1285   1.415       .  A
C502        C505   1.442       .  S
C505        N507   1.157       .  T
C506        N508   1.158       .  T
C509        C510   1.411       .  A
C509        C514   1.414   1_455  A
C510        C511   1.400       .  A
C510        H515   1.084       .  S
C511        C512   1.412       .  A
C511        C518   1.438       .  S
C512        C513   1.408   1_455  A
C513        C514   1.398       .  A
C513        H516   1.084       .  S
C514        C517   1.440       .  S
C517        N519   1.157       .  T
C518        N520   1.156       .  T
C521        C522   1.402       .  A
C521        C526   1.410       .  A
C522        C523   1.398       .  A
C522        H527   1.085       .  S
C523        C524   1.411       .  A
C523        C530   1.445       .  S
C524        C525   1.401       .  A
C525        C526   1.404       .  A
C525        H528   1.085       .  S
C526        C529   1.440       .  S
C529        N531   1.156       .  T
C530        N532   1.157       .  T
C533        C534   1.408   1_455  A
C533        C538   1.422       .  A
C534       C1319   1.411   1_554  A
C534        H539   1.081       .  S
C535        C536   1.425   1_655  A
C535       C1318   1.411       .  A
C535        C542   1.443       .  S
C536        C537   1.410       .  A
C537       C1322   1.405       .  A
C537        H540   1.079       .  S
C538       C1321   1.405   1_554  A
C538        C541   1.447       .  S
C541        N543   1.158       .  T
C542        N544   1.158       .  T
C545        C546   1.413       .  A
C545        C550   1.422   1_565  A
C546        C547   1.395   1_655  A
C546        H551   1.077       .  S
C547        C548   1.397       .  A
C547        C554   1.443       .  S
C548        C549   1.392   1_565  A
C549        C550   1.381   1_455  A
C549        H552   1.084       .  S
C550        C553   1.449       .  S
C553        N555   1.158       .  T
C554        N556   1.156       .  T
C557        C558   1.403       .  A
C557        C562   1.410   1_545  A
C558        C559   1.393       .  A
C558        H563   1.084       .  S
C559        C560   1.408       .  A
C559        C566   1.444       .  S
C560        C561   1.397   1_545  A
C561        C562   1.394       .  A
C561        H564   1.085       .  S
C562        C565   1.440       .  S
C565        N567   1.156       .  T
C566        N568   1.157       .  T
C569        C570   1.405       .  A
C569        C574   1.426   1_565  A
C570        C571   1.406       .  A
C570        H575   1.083       .  S
C571        C572   1.413       .  A
C571        C578   1.442       .  S
C572        C573   1.390   1_565  A
C573        C574   1.392       .  A
C573        H576   1.086       .  S
C574        C577   1.445       .  S
C577        N579   1.157       .  T
C578        N580   1.157       .  T
C581        C582   1.403       .  A
C581        C586   1.410   1_545  A
C582        C583   1.386   1_655  A
C582        H587   1.084       .  S
C583        C584   1.416       .  A
C583        C590   1.438       .  S
C584        C585   1.408   1_545  A
C585        C586   1.390   1_455  A
C585        H588   1.080       .  S
C586        C589   1.433       .  S
C589        N591   1.154       .  T
C590        N592   1.155       .  T
C593        C594   1.412   1_566  A
C593       C1382   1.423       .  A
C594        C595   1.396       .  A
C594        H599   1.076   1_545  S
C595        C596   1.403   1_554  A
C595        C602   1.442       .  S
C596       C1381   1.390       .  A
C597        C598   1.389   1_545  A
C597       C1380   1.390       .  A
C597        H600   1.086       .  S
C598       C1377   1.423       .  A
C598        C601   1.439       .  S
C601        N603   1.156       .  T
C602        N604   1.156       .  T
C605        C606   1.398       .  A
C605       C1394   1.410   1_554  A
C606        C607   1.390       .  A
C606        H611   1.085       .  S
C607        C608   1.406   1_554  A
C607        C614   1.445       .  S
C608       C1097   1.443       .  S
C608       C1393   1.393       .  A
C609        C610   1.385       .  A
C609       C1392   1.393       .  A
C609        H612   1.086       .  S
C610       C1389   1.410       .  A
C610        C613   1.446       .  S
C613        N615   1.157       .  T
C614        N616   1.157       .  T
C617        C618   1.404       .  A
C617       C1406   1.416   1_554  A
C618        C619   1.397       .  A
C618        H623   1.085       .  S
C619        C620   1.406       .  A
C619        C626   1.442       .  S
C620       C1405   1.391   1_554  A
C621        C622   1.384       .  A
C621       C1404   1.391       .  A
C621        H624   1.087       .  S
C622       C1401   1.416       .  A
C622        C625   1.440       .  S
C625        N627   1.156       .  T
C626        N628   1.157       .  T
C629        C630   1.405       .  A
C629       C1418   1.419   1_554  A
C630        C631   1.407       .  A
C630        H635   1.083       .  S
C631        C632   1.424   1_565  A
C631        C638   1.443   1_565  S
C632       C1417   1.410   1_544  A
C633        C634   1.394       .  A
C633       C1416   1.410   1_565  A
C633        H636   1.079   1_565  S
C634       C1413   1.419       .  A
C634        C637   1.444       .  S
C637        N639   1.157       .  T
C638        N640   1.158       .  T
C641        C642   1.402       .  A
C641        C646   1.406       .  A
C642        C643   1.394   1_565  A
C642        H647   1.085       .  S
C643        C644   1.412       .  A
C643        C650   1.445       .  S
C644        C645   1.404       .  A
C645        C646   1.405   1_545  A
C645        H648   1.085       .  S
C646        C649   1.437       .  S
C649        N651   1.155       .  T
C650        N652   1.157       .  T
C653        C654   1.400       .  A
C653        C658   1.409       .  A
C654        C655   1.398       .  A
C654        H659   1.085       .  S
C655        C656   1.427       .  A
C655        C662   1.446       .  S
C656        C657   1.415       .  A
C657        C658   1.409       .  A
C657        H660   1.078       .  S
C658        C661   1.442       .  S
C661        N663   1.157       .  T
C662        N664   1.157       .  T
C665        C666   1.399       .  A
C665        C670   1.410       .  A
C666        C667   1.410       .  A
C666        H671   1.086       .  S
C667        C668   1.430       .  A
C667        C674   1.441       .  S
C668        C669   1.418       .  A
C669        C670   1.418       .  A
C669        H672   1.083       .  S
C670        C673   1.443       .  S
C673        N675   1.157       .  T
C674        N676   1.158       .  T
C677        C678   1.401       .  A
C677        C682   1.411       .  A
C678        C679   1.406   1_565  A
C678        H683   1.085       .  S
C679        C680   1.415       .  A
C679        C686   1.441       .  S
C680        C681   1.404       .  A
C681        C682   1.397   1_545  A
C681        H684   1.085       .  S
C682        C685   1.446       .  S
C685        N687   1.157       .  T
C686        N688   1.157       .  T
C689        C690   1.405       .  A
C689        C694   1.425       .  A
C690       C1475   1.411       .  A
C690        H695   1.084       .  S
C691        C692   1.412       .  A
C691       C1474   1.411   1_554  A
C691        C698   1.436       .  S
C692        C693   1.392       .  A
C693       C1478   1.394   1_554  A
C693        H696   1.085       .  S
C694       C1477   1.394       .  A
C694        C697   1.446       .  S
C697        N699   1.157       .  T
C698        N700   1.155       .  T
C701        C702   1.407       .  A
C701        C706   1.423       .  A
C702        C703   1.393       .  A
C702        H707   1.075       .  S
C703        C704   1.416       .  A
C703        C710   1.447       .  S
C704        C705   1.403       .  A
C705        C706   1.399       .  A
C705        H708   1.081       .  S
C706        C709   1.443       .  S
C709        N711   1.157       .  T
C710        N712   1.157       .  T
C713        C714   1.414       .  A
C713        C718   1.419       .  A
C714        C715   1.384       .  A
C714        H719   1.086       .  S
C715        C716   1.404       .  A
C715        C722   1.447       .  S
C716        C717   1.399       .  A
C717        C718   1.399       .  A
C717        H720   1.086       .  S
C718        C721   1.439       .  S
C721        N723   1.157       .  T
C722        N724   1.157       .  T
C725        C726   1.411       .  A
C725        C730   1.416       .  A
C726       C1511   1.390       .  A
C726        H731   1.083       .  S
C727        C728   1.402       .  A
C727       C1510   1.390   1_554  A
C727        C734   1.442       .  S
C728        C729   1.405       .  A
C729       C1514   1.390   1_554  A
C729        H732   1.086       .  S
C730       C1513   1.390       .  A
C730        C733   1.443       .  S
C733        N735   1.158       .  T
C734        N736   1.157       .  T
C737        C738   1.413       .  A
C737        C742   1.413       .  A
C738        C739   1.394   1_655  A
C738        H743   1.084       .  S
C739        C740   1.400       .  A
C739        C746   1.443       .  S
C740        C741   1.393       .  A
C741        C742   1.378   1_455  A
C741        H744   1.078       .  S
C742        C745   1.444       .  S
C745        N747   1.158       .  T
C746        N748   1.157       .  T
C749        C750   1.415       .  A
C749        C754   1.428       .  A
C750        C751   1.408       .  A
C750        H755   1.081       .  S
C751        C752   1.407       .  A
C751        C758   1.442       .  S
C752        C753   1.389       .  A
C753        C754   1.389       .  A
C753        H756   1.084       .  S
C754        C757   1.441       .  S
C757        N759   1.155       .  T
C758        N760   1.157       .  T
C761        C762   1.412       .  A
C761        C766   1.424       .  A
C762        C763   1.390       .  A
C762        H767   1.085       .  S
C763        C764   1.406       .  A
C763        C770   1.446       .  S
C764        C765   1.401       .  A
C765        C766   1.409       .  A
C765        H768   1.085       .  S
C766        C769   1.442       .  S
C769        N771   1.158       .  T
C770        N772   1.157       .  T
C773        C774   1.398       .  A
C773        C778   1.411       .  A
C774        C775   1.394   1_655  A
C774        H779   1.085       .  S
C775        C776   1.408       .  A
C775        C782   1.440       .  S
C776        C777   1.401       .  A
C777        C778   1.386   1_455  A
C777        H780   1.085       .  S
C778        C781   1.447       .  S
C781        N783   1.157       .  T
C782        N784   1.156       .  T
O785       Ni791   1.908       .  S
O785        C806   1.268       .  A
O786       Ni809   1.990       .  S
O786        C795   1.283       .  A
O787       Ni791   1.876       .  S
O787       Ni809   1.925       .  S
O787       Ni803   1.887       .  S
O787        H810   0.967       .  S
C788        O805   1.273       .  A
C788        O797   1.284       .  A
C788       C1059   1.457       .  S
O789       Ni808   1.927       .  S
O789        C795   1.272       .  A
O790       Ni808   1.904       .  S
O790        C792   1.263       .  A
Ni791       O794   1.892       .  S
Ni791       O796   1.911       .  S
C792        O802   1.294       .  A
C792        C885   1.511       .  S
O793       Ni809   1.877       .  S
O793        C799   1.272       .  A
O794        C799   1.282       .  A
C795       C1207   1.570       .  S
O796        C798   1.265       .  A
O797       Ni808   1.907       .  S
C798        O804   1.294       .  A
C798       C1140   1.518       .  S
C799        C835   1.452       .  S
H800        O801   0.966       .  S
O801       Ni809   1.882       .  S
O801       Ni803   1.929       .  S
O801       Ni808   1.884       .  S
O802       Ni803   1.995       .  S
Ni803       O807   1.999       .  S
Ni803       O805   1.870       .  S
O804       Ni809   1.998       .  S
C806        O807   1.290       .  A
C806        C938   1.528       .  S
C811       C1545   1.540       .  S
C811        C812   1.548       .  S
C811        C817   1.538       .  S
C811        C815   1.531       .  S
C812        H819   1.080       .  S
C812        C813   1.376       .  D
C813       C1014   1.526       .  S
C813        C814   1.569       .  S
C814        C818   1.523       .  S
C814        C816   1.574       .  S
C814        H820   1.110       .  S
C815        H821   1.087       .  S
C815        C816   1.361       .  D
C816       C1054   1.519       .  S
C817        H822   1.087       .  S
C817        C818   1.359       .  D
C818       C1557   1.460       .  S
C823       C1269   1.492       .  S
C823        C824   1.522       .  S
C823        C829   1.530       .  S
C823        C827   1.542       .  S
C824        H831   1.088       .  S
C824        C825   1.351       .  D
C825       C1560   1.467       .  S
C825        C826   1.529       .  S
C826        C830   1.546       .  S
C826        C828   1.535       .  S
C826        H832   1.110       .  S
C827        H833   1.087       .  S
C827        C828   1.352       .  D
C828       C1536   1.475       .  S
C829        H834   1.086       .  S
C829        C830   1.381       .  D
C830        C969   1.463       .  S
C835        C836   1.503       .  S
C835        C841   1.527       .  S
C835        C839   1.531       .  S
C836        H843   1.088       .  S
C836        C837   1.348       .  D
C837       C1184   1.421       .  S
C837        C838   1.523       .  S
C838        C842   1.536       .  S
C838        C840   1.536       .  S
C838        H844   1.104       .  S
C839        H845   1.088       .  S
C839        C840   1.356       .  D
C840       C1548   1.478       .  S
C841        H846   1.085       .  S
C841        C842   1.369       .  D
C842       C1521   1.471       .  S
C847       C1533   1.541       .  S
C847        C848   1.532       .  S
C847        C853   1.532       .  S
C847        C851   1.522       .  S
C848        H855   1.086       .  S
C848        C849   1.366       .  D
C849       C1524   1.459       .  S
C849        C850   1.515       .  S
C850        C854   1.558       .  S
C850        C852   1.549       .  S
C850        H856   1.110       .  S
C851        H857   1.087       .  S
C851        C852   1.372       .  D
C852        C984   1.497       .  S
C853        H858   1.086       .  S
C853        C854   1.378       .  D
C854       C1121   1.492       .  S
C859       C1497   1.524       .  S
C859        C860   1.534       .  S
C859        C865   1.538       .  S
C859        C863   1.527       .  S
C860        H867   1.087       .  S
C860        C861   1.363       .  D
C861        C962   1.466       .  S
C861        C862   1.529       .  S
C862        C866   1.531       .  S
C862        C864   1.529       .  S
C862        H868   1.101       .  S
C863        H869   1.075       .  S
C863        C864   1.363       .  D
C864       C1128   1.452       .  S
C865        H870   1.086       .  S
C865        C866   1.366       .  D
C866       C1509   1.489       .  S
C871        C991   1.474       .  S
C871        C872   1.533       .  S
C871        C877   1.534       .  S
C871        C875   1.504       .  S
C872        H879   1.079       .  S
C872        C873   1.372       .  D
C873       C1485   1.508       .  S
C873        C874   1.552       .  S
C874        C878   1.522       .  S
C874        C876   1.538       .  S
C874        H880   1.102       .  S
C875        H881   1.088       .  S
C875        C876   1.356       .  D
C876       C1512   1.472       .  S
C877        H882   1.086       .  S
C877        C878   1.362       .  D
C878       C1276   1.451       .  S
C883       C1040   1.551       .  S
C883        C884   1.571       .  S
C883        C889   1.518       .  S
C883        C887   1.529       .  S
C884        H891   1.085       .  S
C884        C885   1.405       .  D
C885        C886   1.550       .  S
C886        C890   1.532       .  S
C886        C888   1.548       .  S
C886        H892   1.111       .  S
C887        H893   1.087       .  S
C887        C888   1.349       .  D
C888       C1473   1.504       .  S
C889        H894   1.087       .  S
C889        C890   1.357       .  D
C890       C1500   1.465       .  S
C895       C1488   1.525       .  S
C895        C896   1.536       .  S
C895        C901   1.529       .  S
C895        C899   1.537       .  S
C896        H903   1.082       .  S
C896        C897   1.367       .  D
C897       C1194   1.491       .  S
C897        C898   1.565       .  S
C898        C902   1.559       .  S
C898        C900   1.540       .  S
C898        H904   1.110       .  S
C899        H905   1.088       .  S
C899        C900   1.349       .  D
C900       C1476   1.480       .  S
C901        H906   1.087       .  S
C901        C902   1.366       .  D
C902       C1028   1.490       .  S
C907       C1191   1.543       .  S
C907        C908   1.545       .  S
C907        C913   1.540       .  S
C907        C911   1.557       .  S
C908        H915   1.086       .  S
C908        C909   1.368       .  D
C909       C1449   1.507       .  S
C909        C910   1.544       .  S
C910        C914   1.529       .  S
C910        C912   1.550       .  S
C910        H916   1.112       .  S
C911        H917   1.084       .  S
C911        C912   1.387       .  D
C912        C994   1.494       .  S
C913        H918   1.088       .  S
C913        C914   1.356       .  D
C914       C1461   1.482       .  S
C919       C1021   1.520       .  S
C919        C920   1.550       .  S
C919        C925   1.531       .  S
C919        C923   1.532       .  S
C920        H927   1.084       .  S
C920        C921   1.378       .  D
C921       C1262   1.489       .  S
C921        C922   1.550       .  S
C922        C926   1.540       .  S
C922        C924   1.544       .  S
C922        H928   1.111       .  S
C923        H929   1.087       .  S
C923        C924   1.363       .  D
C924       C1437   1.493       .  S
C925        H930   1.087       .  S
C925        C926   1.365       .  D
C926       C1464   1.488       .  S
C931       C1114   1.560       .  S
C931        C932   1.536       .  S
C931        C937   1.572       .  S
C931        C935   1.554       .  S
C932        H939   1.088       .  S
C932        C933   1.346       .  D
C933       C1425   1.479       .  S
C933        C934   1.533       .  S
C934        C938   1.561       .  S
C934        C936   1.550       .  S
C934        H940   1.103       .  S
C935        H941   1.085       .  S
C935        C936   1.379       .  D
C936       C1452   1.537       .  S
C937        H942   1.085       .  S
C937        C938   1.393       .  D
C943       C1440   1.546       .  S
C943        C944   1.533       .  S
C943        C949   1.534       .  S
C943        C947   1.540       .  S
C944        H951   1.087       .  S
C944        C945   1.357       .  D
C945       C1428   1.480       .  S
C945        C946   1.536       .  S
C946        C950   1.548       .  S
C946        C948   1.554       .  S
C946        H952   1.111       .  S
C947        H953   1.083       .  S
C947        C948   1.371       .  D
C948        C976   1.478       .  S
C949        H954   1.087       .  S
C949        C950   1.374       .  D
C950       C1047   1.483       .  S
O955       Ni961   1.919       .  S
O955        C976   1.269       .  A
O956       Ni979   1.951       .  S
O956        C965   1.277       .  A
O957       Ni961   1.888       .  S
O957       Ni979   1.895       .  S
O957       Ni973   1.893       .  S
O957        H980   0.966       .  S
C958        O975   1.277       .  A
C958        O967   1.273       .  A
C958       C1095   1.468       .  S
O959       Ni978   1.890       .  S
O959        C965   1.261       .  A
O960       Ni978   1.896       .  S
O960        C962   1.266       .  A
Ni961       O964   1.920       .  S
Ni961       O966   1.897       .  S
C962        O972   1.265       .  A
O963       Ni979   1.905       .  S
O963        C969   1.283       .  A
O964        C969   1.282       .  A
C965       C1238   1.487       .  S
O966        C968   1.265       .  A
O967       Ni978   1.896       .  S
C968        O974   1.274       .  A
C968       C1150   1.474       .  S
H970        O971   0.966       .  S
O971       Ni979   1.909       .  S
O971       Ni973   1.902       .  S
O971       Ni978   1.901       .  S
O972       Ni973   1.903       .  S
Ni973       O977   1.931       .  S
Ni973       O975   1.905       .  S
O974       Ni979   1.922       .  S
C976        O977   1.273       .  A
O981       Ni987   1.889       .  S
O981       C1002   1.259       .  A
O982      Ni1005   1.869       .  S
O982        C991   1.258       .  A
O983       Ni987   1.892       .  S
O983      Ni1005   1.888       .  S
O983       Ni999   1.940       .  S
O983       H1006   0.966       .  S
C984       O1001   1.285       .  A
C984        O993   1.276       .  A
O985      Ni1004   1.901       .  S
O985        C991   1.267       .  A
O986      Ni1004   1.923       .  S
O986        C988   1.269       .  A
Ni987       O990   1.910       .  S
Ni987       O992   1.904       .  S
C988        O998   1.279       .  A
C988       C1221   1.506       .  S
O989      Ni1005   1.955       .  S
O989        C995   1.281       .  A
O990        C995   1.281       .  A
O992        C994   1.264       .  A
O993      Ni1004   1.908       .  S
C994       O1000   1.270       .  A
C995       C1088   1.500       .  S
H996        O997   0.966       .  S
O997      Ni1005   1.934       .  S
O997       Ni999   1.902       .  S
O997      Ni1004   1.899       .  S
O998       Ni999   1.965       .  S
Ni999      O1003   1.923       .  S
Ni999      O1001   1.954       .  S
O1000     Ni1005   1.954       .  S
C1002      O1003   1.271       .  A
C1002      C1176   1.464       .  S
O1007     Ni1013   1.908       .  S
O1007      C1028   1.268       .  A
O1008     Ni1031   1.936       .  S
O1008      C1017   1.270       .  A
O1009     Ni1013   1.915       .  S
O1009     Ni1031   1.898       .  S
O1009     Ni1025   1.936       .  S
O1009      H1032   0.966       .  S
C1010      O1027   1.290       .  A
C1010      O1019   1.285       .  A
C1010      C1245   1.521       .  S
O1011     Ni1030   1.925       .  S
O1011      C1017   1.269       .  A
O1012     Ni1030   1.935       .  S
O1012      C1014   1.271       .  A
Ni1013     O1016   1.938       .  S
Ni1013     O1018   1.930       .  S
C1014      O1024   1.282       .  A
O1015     Ni1031   1.931       .  S
O1015      C1021   1.286       .  A
O1016      C1021   1.279       .  A
C1017      C1159   1.482       .  S
O1018      C1020   1.270       .  A
O1019     Ni1030   1.956       .  S
C1020      O1026   1.276       .  A
C1020      C1078   1.509       .  S
H1022      O1023   0.966       .  S
O1023     Ni1031   1.934       .  S
O1023     Ni1025   1.910       .  S
O1023     Ni1030   1.917       .  S
O1024     Ni1025   1.963       .  S
Ni1025     O1029   1.950       .  S
Ni1025     O1027   1.958       .  S
O1026     Ni1031   1.947       .  S
C1028      O1029   1.275       .  A
O1033     Ni1039   1.955       .  S
O1033      C1054   1.276       .  A
O1034     Ni1057   1.950       .  S
O1034      C1043   1.284       .  A
O1035     Ni1039   1.918       .  S
O1035     Ni1057   1.957       .  S
O1035     Ni1051   1.928       .  S
O1035      H1058   0.966       .  S
C1036      O1053   1.277       .  A
C1036      O1045   1.255       .  A
C1036      C1231   1.517       .  S
O1037     Ni1056   1.926       .  S
O1037      C1043   1.267       .  A
O1038     Ni1056   1.897       .  S
O1038      C1040   1.280       .  A
Ni1039     O1042   1.908       .  S
Ni1039     O1044   1.903       .  S
C1040      O1050   1.289       .  A
O1041     Ni1057   1.958       .  S
O1041      C1047   1.274       .  A
O1042      C1047   1.258       .  A
C1043      C1076   1.496       .  S
O1044      C1046   1.283       .  A
O1045     Ni1056   1.893       .  S
C1046      O1052   1.286       .  A
C1046      C1133   1.555       .  S
H1048      O1049   0.966       .  S
O1049     Ni1057   1.927       .  S
O1049     Ni1051   1.954       .  S
O1049     Ni1056   1.920       .  S
O1050     Ni1051   2.018       .  S
Ni1051     O1055   1.959       .  S
Ni1051     O1053   1.973       .  S
O1052     Ni1057   2.010       .  S
C1054      O1055   1.288       .  A
C1059      C1065   1.533       .  S
C1059      C1063   1.529       .  S
C1060      H1067   1.087       .  S
C1060      C1061   1.352       .  D
C1061      C1195   1.420       .  S
C1061      C1062   1.539       .  S
C1062      C1066   1.548       .  S
C1062      C1064   1.525       .  S
C1062      H1068   1.109       .  S
C1063      H1069   1.087       .  S
C1064      C1404   1.455       .  S
C1065      H1070   1.082       .  S
C1066      C1413   1.506       .  S
C1071      C1416   1.541       .  S
C1071      C1072   1.527       .  S
C1071      C1077   1.546       .  S
C1072      H1079   1.088       .  S
C1072      C1073   1.356       .  D
C1073      C1389   1.448       .  S
C1073      C1074   1.518       .  S
C1074      C1078   1.559       .  S
C1074      H1080   1.111       .  S
C1075      H1081   1.084       .  S
C1075      C1076   1.361       .  D
C1077      H1082   1.084       .  S
C1077      C1078   1.376       .  D
C1083      C1377   1.527       .  S
C1083      C1089   1.538       .  S
C1083      C1087   1.525       .  S
C1084      H1091   1.087       .  S
C1084      C1085   1.369       .  D
C1085      C1110   1.494       .  S
C1086      C1090   1.529       .  S
C1086      C1088   1.563       .  S
C1086      H1092   1.110       .  S
C1087      H1093   1.080       .  S
C1087      C1088   1.366       .  D
C1089      H1094   1.087       .  S
C1089      C1090   1.356       .  D
C1090      C1401   1.470       .  S
C1095      C1096   1.525       .  S
C1095      C1101   1.540   1_556  S
C1095      C1099   1.529       .  S
C1096      H1103   1.087       .  S
C1096      C1097   1.351       .  D
C1098      C1102   1.527       .  S
C1098      C1100   1.525       .  S
C1098      H1104   1.111       .  S
C1099      H1105   1.089       .  S
C1100      C1380   1.460       .  S
C1101      H1106   1.086       .  S
C1102      C1258   1.454       .  S
O1107     Ni1113   1.923       .  S
O1107      C1128   1.271       .  A
O1108     Ni1131   1.887       .  S
O1108      C1117   1.267       .  A
O1109     Ni1113   1.917       .  S
O1109     Ni1131   1.915       .  S
O1109     Ni1125   1.898       .  S
O1109      H1132   0.967       .  S
C1110      O1127   1.266       .  A
C1110      O1119   1.263       .  A
O1111     Ni1130   1.916       .  S
O1111      C1117   1.265       .  A
O1112     Ni1130   1.913       .  S
O1112      C1114   1.274       .  A
Ni1113     O1116   1.908       .  S
Ni1113     O1118   1.921       .  S
C1114      O1124   1.288       .  A
O1115     Ni1131   1.943       .  S
O1115      C1121   1.266       .  A
O1116      C1121   1.266       .  A
C1117      C1147   1.449       .  S
O1118      C1120   1.275       .  A
O1119     Ni1130   1.915       .  S
C1120      O1126   1.287       .  A
C1120      C1214   1.526       .  S
H1122      O1123   0.966       .  S
O1123     Ni1131   1.924       .  S
O1123     Ni1125   1.936       .  S
O1123     Ni1130   1.913       .  S
O1124     Ni1125   2.023       .  S
Ni1125     O1129   1.882       .  S
Ni1125     O1127   1.951       .  S
O1126     Ni1131   2.011       .  S
C1128      O1129   1.269       .  A
C1133      C1134   1.516       .  S
C1133      C1139   1.573   1_545  S
C1133      C1137   1.527       .  S
C1134      H1141   1.086       .  S
C1134      C1135   1.363       .  D
C1135      C1365   1.487       .  S
C1135      C1136   1.537   1_545  S
C1136      C1140   1.555       .  S
C1136      C1138   1.541       .  S
C1136      H1142   1.099       .  S
C1137      H1143   1.087       .  S
C1137      C1138   1.345   1_545  D
C1138      C1353   1.500       .  S
C1139      H1144   1.084       .  S
C1139      C1140   1.407       .  D
C1145      C1368   1.517       .  S
C1145      C1146   1.527   1_545  S
C1145      C1151   1.535       .  S
C1145      C1149   1.534       .  S
C1146      H1153   1.085       .  S
C1146      C1147   1.354       .  D
C1147      C1148   1.535   1_565  S
C1148      C1152   1.528       .  S
C1148      C1150   1.549       .  S
C1148      H1154   1.111       .  S
C1149      H1155   1.084       .  S
C1149      C1150   1.367       .  D
C1151      H1156   1.088       .  S
C1151      C1152   1.357       .  D
C1152      C1341   1.471       .  S
C1157      C1329   1.512       .  S
C1157      C1158   1.521   1_565  S
C1157      C1163   1.529       .  S
C1157      C1161   1.535       .  S
C1158      H1165   1.088       .  S
C1158      C1159   1.359       .  D
C1159      C1160   1.562   1_545  S
C1160      C1164   1.562       .  S
C1160      C1162   1.534       .  S
C1160      H1166   1.110       .  S
C1161      H1167   1.088       .  S
C1161      C1162   1.349       .  D
C1162      C1356   1.472       .  S
C1163      H1168   1.081       .  S
C1163      C1164   1.369       .  D
C1164      C1188   1.486       .  S
C1169      C1265   1.472       .  S
C1169      C1170   1.513       .  S
C1169      C1175   1.533   1_545  S
C1169      C1173   1.527       .  S
C1170      H1177   1.089       .  S
C1170      C1171   1.349   1_545  D
C1171      C1332   1.447       .  S
C1171      C1172   1.534       .  S
C1172      C1176   1.533       .  S
C1172      C1174   1.535   1_565  S
C1172      H1178   1.111       .  S
C1173      H1179   1.088       .  S
C1173      C1174   1.355       .  D
C1174      C1344   1.464       .  S
C1175      H1180   1.086       .  S
C1175      C1176   1.377       .  D
O1181     Ni1187   1.929       .  S
O1181      C1202   1.269       .  A
O1182     Ni1205   1.986       .  S
O1182      C1191   1.278       .  A
O1183     Ni1187   1.904       .  S
O1183     Ni1205   1.931       .  S
O1183     Ni1199   1.882       .  S
O1183      H1206   0.966       .  S
C1184      O1201   1.275       .  A
C1184      O1193   1.274       .  A
O1185     Ni1204   1.888       .  S
O1185      C1191   1.261       .  A
O1186     Ni1204   1.906       .  S
O1186      C1188   1.260       .  A
Ni1187     O1190   1.894       .  S
Ni1187     O1192   1.908       .  S
C1188      O1198   1.271       .  A
O1189     Ni1205   1.863       .  S
O1189      C1195   1.265       .  A
O1190      C1195   1.276       .  A
O1192      C1194   1.267       .  A
O1193     Ni1204   1.876       .  S
C1194      O1200   1.283       .  A
H1196      O1197   0.967       .  S
O1197     Ni1205   1.878       .  S
O1197     Ni1199   1.910       .  S
O1197     Ni1204   1.903       .  S
O1198     Ni1199   1.920       .  S
Ni1199     O1203   1.956       .  S
Ni1199     O1201   1.881       .  S
O1200     Ni1205   1.945       .  S
C1202      O1203   1.274       .  A
C1202      C1226   1.507       .  S
C1207      C1208   1.540       .  S
C1207      C1213   1.577   1_655  S
C1207      C1211   1.533       .  S
C1208      H1215   1.087       .  S
C1208      C1209   1.355   1_655  D
C1209      C1308   1.479       .  S
C1209      C1210   1.528       .  S
C1210      C1214   1.544       .  S
C1210      C1212   1.558       .  S
C1210      H1216   1.107       .  S
C1211      H1217   1.082       .  S
C1211      C1212   1.374   1_655  D
C1212      C1320   1.525       .  S
C1213      H1218   1.085       .  S
C1213      C1214   1.401       .  D
C1219      C1317   1.553       .  S
C1219      C1220   1.531       .  S
C1219      C1225   1.545   1_455  S
C1219      C1223   1.537       .  S
C1220      H1227   1.087       .  S
C1220      C1221   1.368       .  D
C1221      C1222   1.573       .  S
C1222      C1226   1.562   1_455  S
C1222      C1224   1.542       .  S
C1222      H1228   1.106       .  S
C1223      H1229   1.085       .  S
C1223      C1224   1.365       .  D
C1224      C1296   1.501       .  S
C1225      H1230   1.084       .  S
C1225      C1226   1.373       .  D
C1231      C1232   1.547       .  S
C1231      C1237   1.534   1_655  S
C1231      C1235   1.536       .  S
C1232      H1239   1.081       .  S
C1232      C1233   1.370   1_655  D
C1233      C1281   1.540       .  S
C1233      C1234   1.562       .  S
C1234      C1238   1.568       .  S
C1234      C1236   1.528       .  S
C1234      H1240   1.108       .  S
C1235      H1241   1.087       .  S
C1235      C1236   1.358   1_655  D
C1236      C1305   1.482       .  S
C1237      H1242   1.085       .  S
C1237      C1238   1.376       .  D
C1243      C1268   1.552       .  S
C1243      C1244   1.552       .  S
C1243      C1249   1.540       .  S
C1243      C1247   1.537       .  S
C1244      H1251   1.086       .  S
C1244      C1245   1.384   1_455  D
C1245      C1246   1.557       .  S
C1246      C1250   1.539   1_655  S
C1246      C1248   1.571   1_655  S
C1246      H1252   1.103       .  S
C1247      H1253   1.084       .  S
C1247      C1248   1.373       .  D
C1248      C1284   1.533       .  S
C1249      H1254   1.085       .  S
C1249      C1250   1.366       .  D
C1250      C1293   1.502       .  S
O1255     Ni1261   1.914       .  S
O1255      C1276   1.267       .  A
O1256     Ni1279   1.858       .  S
O1256      C1265   1.268       .  A
O1257     Ni1261   1.874       .  S
O1257     Ni1279   1.881       .  S
O1257     Ni1273   1.873       .  S
O1257      H1280   0.965       .  S
C1258      O1275   1.262       .  A
C1258      O1267   1.278       .  A
O1259     Ni1278   1.928       .  S
O1259      C1265   1.271       .  A
O1260     Ni1278   1.894       .  S
O1260      C1262   1.263       .  A
Ni1261     O1264   1.886       .  S
Ni1261     O1266   1.932       .  S
C1262      O1272   1.282       .  A
O1263     Ni1279   1.932       .  S
O1263      C1269   1.279       .  A
O1264      C1269   1.271       .  A
O1266      C1268   1.274       .  A
O1267     Ni1278   1.933       .  S
C1268      O1274   1.277       .  A
H1270      O1271   0.966       .  S
O1271     Ni1279   1.892       .  S
O1271     Ni1273   1.892       .  S
O1271     Ni1278   1.892       .  S
O1272     Ni1273   1.982       .  S
Ni1273     O1277   1.877       .  S
Ni1273     O1275   1.875       .  S
O1274     Ni1279   1.961       .  S
C1276      O1277   1.265       .  A
C1281      C1282   1.410       .  A
C1281      C1286   1.433   1_455  A
C1282      H1287   1.082       .  S
C1283      C1284   1.429       .  A
C1283      C1290   1.444       .  S
C1284      C1285   1.403   1_455  A
C1285      H1288   1.084       .  S
C1286      C1289   1.442       .  S
C1289      N1291   1.157       .  T
C1290      N1292   1.158       .  T
C1293      C1294   1.411       .  A
C1293      C1298   1.414   1_455  A
C1294      C1295   1.400       .  A
C1294      H1299   1.084       .  S
C1295      C1296   1.412       .  A
C1295      C1302   1.438       .  S
C1296      C1297   1.408   1_455  A
C1297      C1298   1.398       .  A
C1297      H1300   1.084       .  S
C1298      C1301   1.440       .  S
C1301      N1303   1.157       .  T
C1302      N1304   1.156       .  T
C1305      C1306   1.402       .  A
C1305      C1310   1.410       .  A
C1306      C1307   1.398       .  A
C1306      H1311   1.085       .  S
C1307      C1308   1.411       .  A
C1307      C1314   1.445       .  S
C1308      C1309   1.401       .  A
C1309      C1310   1.404       .  A
C1309      H1312   1.085       .  S
C1310      C1313   1.440       .  S
C1313      N1315   1.156       .  T
C1314      N1316   1.157       .  T
C1317      C1318   1.408   1_455  A
C1317      C1322   1.422       .  A
C1318      H1323   1.081       .  S
C1319      C1320   1.425   1_655  A
C1319      C1326   1.443       .  S
C1320      C1321   1.410       .  A
C1321      H1324   1.079       .  S
C1322      C1325   1.447       .  S
C1325      N1327   1.158       .  T
C1326      N1328   1.158       .  T
C1329      C1330   1.413       .  A
C1329      C1334   1.422   1_565  A
C1330      C1331   1.395   1_655  A
C1330      H1335   1.077       .  S
C1331      C1332   1.397       .  A
C1331      C1338   1.443       .  S
C1332      C1333   1.392   1_565  A
C1333      C1334   1.380   1_455  A
C1333      H1336   1.084       .  S
C1334      C1337   1.449       .  S
C1337      N1339   1.158       .  T
C1338      N1340   1.156       .  T
C1341      C1342   1.403       .  A
C1341      C1346   1.410   1_545  A
C1342      C1343   1.393       .  A
C1342      H1347   1.084       .  S
C1343      C1344   1.408       .  A
C1343      C1350   1.444       .  S
C1344      C1345   1.397   1_545  A
C1345      C1346   1.394       .  A
C1345      H1348   1.085       .  S
C1346      C1349   1.440       .  S
C1349      N1351   1.156       .  T
C1350      N1352   1.157       .  T
C1353      C1354   1.405       .  A
C1353      C1358   1.426   1_565  A
C1354      C1355   1.406       .  A
C1354      H1359   1.083       .  S
C1355      C1356   1.413       .  A
C1355      C1362   1.442       .  S
C1356      C1357   1.390   1_565  A
C1357      C1358   1.392       .  A
C1357      H1360   1.086       .  S
C1358      C1361   1.445       .  S
C1361      N1363   1.157       .  T
C1362      N1364   1.157       .  T
C1365      C1366   1.403       .  A
C1365      C1370   1.410   1_545  A
C1366      C1367   1.386   1_655  A
C1366      H1371   1.084       .  S
C1367      C1368   1.416       .  A
C1367      C1374   1.438       .  S
C1368      C1369   1.408   1_545  A
C1369      C1370   1.390   1_455  A
C1369      H1372   1.080       .  S
C1370      C1373   1.433       .  S
C1373      N1375   1.154       .  T
C1374      N1376   1.155       .  T
C1377      C1378   1.412   1_565  A
C1378      C1379   1.396       .  A
C1378      H1383   1.076   1_545  S
C1379      C1380   1.403       .  A
C1379      C1386   1.442       .  S
C1381      C1382   1.389   1_545  A
C1381      H1384   1.086       .  S
C1382      C1385   1.439       .  S
C1385      N1387   1.156       .  T
C1386      N1388   1.156       .  T
C1389      C1390   1.398       .  A
C1390      C1391   1.390       .  A
C1390      H1395   1.085       .  S
C1391      C1392   1.406       .  A
C1391      C1398   1.445       .  S
C1393      C1394   1.385       .  A
C1393      H1396   1.086       .  S
C1394      C1397   1.446       .  S
C1397      N1399   1.157       .  T
C1398      N1400   1.157       .  T
C1401      C1402   1.404       .  A
C1402      C1403   1.397       .  A
C1402      H1407   1.085       .  S
C1403      C1404   1.406       .  A
C1403      C1410   1.442       .  S
C1405      C1406   1.384       .  A
C1405      H1408   1.087       .  S
C1406      C1409   1.440       .  S
C1409      N1411   1.156       .  T
C1410      N1412   1.157       .  T
C1413      C1414   1.405       .  A
C1414      C1415   1.407       .  A
C1414      H1419   1.083       .  S
C1415      C1416   1.424   1_565  A
C1415      C1422   1.443   1_565  S
C1417      C1418   1.394       .  A
C1417      H1420   1.079   1_565  S
C1418      C1421   1.444       .  S
C1421      N1423   1.157       .  T
C1422      N1424   1.158       .  T
C1425      C1426   1.402       .  A
C1425      C1430   1.406       .  A
C1426      C1427   1.394   1_565  A
C1426      H1431   1.085       .  S
C1427      C1428   1.412       .  A
C1427      C1434   1.445       .  S
C1428      C1429   1.404       .  A
C1429      C1430   1.405   1_545  A
C1429      H1432   1.085       .  S
C1430      C1433   1.437       .  S
C1433      N1435   1.155       .  T
C1434      N1436   1.157       .  T
C1437      C1438   1.400       .  A
C1437      C1442   1.409       .  A
C1438      C1439   1.398       .  A
C1438      H1443   1.085       .  S
C1439      C1440   1.427       .  A
C1439      C1446   1.446       .  S
C1440      C1441   1.415       .  A
C1441      C1442   1.409       .  A
C1441      H1444   1.078       .  S
C1442      C1445   1.442       .  S
C1445      N1447   1.157       .  T
C1446      N1448   1.157       .  T
C1449      C1450   1.399       .  A
C1449      C1454   1.410       .  A
C1450      C1451   1.410       .  A
C1450      H1455   1.086       .  S
C1451      C1452   1.430       .  A
C1451      C1458   1.441       .  S
C1452      C1453   1.418       .  A
C1453      C1454   1.418       .  A
C1453      H1456   1.083       .  S
C1454      C1457   1.443       .  S
C1457      N1459   1.157       .  T
C1458      N1460   1.158       .  T
C1461      C1462   1.401       .  A
C1461      C1466   1.411       .  A
C1462      C1463   1.406   1_565  A
C1462      H1467   1.085       .  S
C1463      C1464   1.415       .  A
C1463      C1470   1.441       .  S
C1464      C1465   1.404       .  A
C1465      C1466   1.397   1_545  A
C1465      H1468   1.085       .  S
C1466      C1469   1.446       .  S
C1469      N1471   1.157       .  T
C1470      N1472   1.157       .  T
C1473      C1474   1.405       .  A
C1473      C1478   1.425       .  A
C1474      H1479   1.084       .  S
C1475      C1476   1.412       .  A
C1475      C1482   1.436       .  S
C1476      C1477   1.392       .  A
C1477      H1480   1.085       .  S
C1478      C1481   1.446       .  S
C1481      N1483   1.157       .  T
C1482      N1484   1.155       .  T
C1485      C1486   1.407       .  A
C1485      C1490   1.423       .  A
C1486      C1487   1.393       .  A
C1486      H1491   1.075       .  S
C1487      C1488   1.416       .  A
C1487      C1494   1.447       .  S
C1488      C1489   1.403       .  A
C1489      C1490   1.399       .  A
C1489      H1492   1.081       .  S
C1490      C1493   1.443       .  S
C1493      N1495   1.157       .  T
C1494      N1496   1.157       .  T
C1497      C1498   1.414       .  A
C1497      C1502   1.419       .  A
C1498      C1499   1.384       .  A
C1498      H1503   1.086       .  S
C1499      C1500   1.404       .  A
C1499      C1506   1.447       .  S
C1500      C1501   1.399       .  A
C1501      C1502   1.399       .  A
C1501      H1504   1.086       .  S
C1502      C1505   1.439       .  S
C1505      N1507   1.157       .  T
C1506      N1508   1.157       .  T
C1509      C1510   1.411       .  A
C1509      C1514   1.416       .  A
C1510      H1515   1.083       .  S
C1511      C1512   1.402       .  A
C1511      C1518   1.442       .  S
C1512      C1513   1.405       .  A
C1513      H1516   1.086       .  S
C1514      C1517   1.443       .  S
C1517      N1519   1.158       .  T
C1518      N1520   1.157       .  T
C1521      C1522   1.413       .  A
C1521      C1526   1.413       .  A
C1522      C1523   1.394   1_655  A
C1522      H1527   1.084       .  S
C1523      C1524   1.400       .  A
C1523      C1530   1.443       .  S
C1524      C1525   1.393       .  A
C1525      C1526   1.378   1_455  A
C1525      H1528   1.078       .  S
C1526      C1529   1.444       .  S
C1529      N1531   1.158       .  T
C1530      N1532   1.157       .  T
C1533      C1534   1.415       .  A
C1533      C1538   1.428       .  A
C1534      C1535   1.408       .  A
C1534      H1539   1.081       .  S
C1535      C1536   1.407       .  A
C1535      C1542   1.442       .  S
C1536      C1537   1.389       .  A
C1537      C1538   1.389       .  A
C1537      H1540   1.084       .  S
C1538      C1541   1.441       .  S
C1541      N1543   1.155       .  T
C1542      N1544   1.157       .  T
C1545      C1546   1.412       .  A
C1545      C1550   1.424       .  A
C1546      C1547   1.390       .  A
C1546      H1551   1.085       .  S
C1547      C1548   1.406       .  A
C1547      C1554   1.446       .  S
C1548      C1549   1.401       .  A
C1549      C1550   1.409       .  A
C1549      H1552   1.085       .  S
C1550      C1553   1.442       .  S
C1553      N1555   1.158       .  T
C1554      N1556   1.157       .  T
C1557      C1558   1.398       .  A
C1557      C1562   1.411       .  A
C1558      C1559   1.394   1_655  A
C1558      H1563   1.085       .  S
C1559      C1560   1.408       .  A
C1559      C1566   1.440       .  S
C1560      C1561   1.401       .  A
C1561      C1562   1.386   1_455  A
C1561      H1564   1.085       .  S
C1562      C1565   1.447       .  S
C1565      N1567   1.157       .  T
C1566      N1568   1.156       .  T
