geometry optimzed in LAMMPS
_audit_creation_date              2020-12-01 
_audit_creation_method            'lammps2cif' 
_symmetry_space_group_name_H-M    'P1' 
_symmetry_Int_Tables_number       1 
_symmetry_cell_setting            triclinic 
loop_ 
_symmetry_equiv_pos_as_xyz 
  x,y,z 
_cell_length_a                    55.1829155 
_cell_length_b                    54.810450378287754 
_cell_length_c                    38.89012060230491 
_cell_angle_alpha                 90.04468470333872 
_cell_angle_beta                  86.96383498621691 
_cell_angle_gamma                 94.15553011263971 
loop_ 
_atom_site_label 
_atom_site_type_symbol 
_atom_site_fract_x 
_atom_site_fract_y 
_atom_site_fract_z 
_atom_site_charge 
O1          O  0.29969471  0.22409691  0.33852147    -0.55100
C2          C  0.25256142  0.17237282  0.34024342     0.77500
O3          O  0.27431838  0.18156359  0.26034151    -0.56300
C4          C  0.31719107  0.23393611  0.31965755     0.77500
C5          C  0.33446022  0.14455246  0.32115129     0.79800
Cd6        Cd  0.30084505  0.18406044  0.30933699     1.37500
O7          O  0.26977854  0.18166041  0.35760819    -0.55100
O8          O  0.32728482  0.15816358  0.34537287    -0.54000
C9          C  0.28340833  0.20128980  0.24639080     0.79800
O10         O  0.32639948  0.14899609  0.29200685    -0.56300
O11         O  0.25765787  0.16810588  0.30886185    -0.54800
O12         O  0.33003138  0.21969097  0.30220587    -0.54800
O13         O  0.30388563  0.20950322  0.25625592    -0.53900
O14         O  0.27282531  0.34637621  0.29400420    -0.55100
C15         C  0.29785463  0.29399129  0.29039549     0.77500
O16         O  0.28550317  0.29133362  0.20683485    -0.56300
C17         C  0.25550668  0.35681684  0.28188719     0.77500
C18         C  0.33083136  0.36301695  0.22131996     0.79800
Cd19       Cd  0.28916955  0.32986879  0.23923169     1.37500
O20         O  0.27809840  0.30436273  0.29025750    -0.55100
O21         O  0.33168870  0.34475755  0.24078430    -0.54000
C22         C  0.26553934  0.29460176  0.19388214     0.79800
O23         O  0.31099389  0.36510892  0.20713481    -0.56300
O24         O  0.31419176  0.30081601  0.26750942    -0.54800
O25         O  0.25466647  0.35678172  0.24936363    -0.54800
O26         O  0.26005380  0.31661658  0.19305252    -0.53900
O27         O  0.15117522  0.30479820  0.36518412    -0.55100
C28         C  0.19186804  0.36569304  0.30560459     0.77500
O29         O  0.15577113  0.31106993  0.25906681    -0.56300
C30         C  0.14254845  0.28562602  0.35021293     0.77500
C31         C  0.10917229  0.36312653  0.32635838     0.79800
Cd32       Cd  0.15072407  0.33214742  0.31532393     1.37500
O33         O  0.18791264  0.35452568  0.33437783    -0.55100
O34         O  0.12421660  0.36059033  0.34947151    -0.54000
C35         C  0.17771441  0.30666427  0.26447557     0.79800
O36         O  0.11260308  0.35075105  0.29899186    -0.56300
O37         O  0.17465571  0.36487955  0.28519705    -0.54800
O38         O  0.13595541  0.28822714  0.31984762    -0.54800
O39         O  0.18660359  0.31471910  0.29189292    -0.53900
O40         O  0.18380600  0.16070950  0.29259031    -0.55100
C41         C  0.14486277  0.22798000  0.32371323     0.77500
O42         O  0.19612375  0.19739073  0.22178557    -0.56300
C43         C  0.19823750  0.17239640  0.31191519     0.77500
C44         C  0.12470713  0.15966102  0.25968130     0.79800
Cd45       Cd  0.16451406  0.19584365  0.26886942     1.37500
O46         O  0.13693543  0.20643268  0.31715521    -0.55100
O47         O  0.14410238  0.15493224  0.27327474    -0.54000
C48         C  0.19034689  0.21634561  0.20679355     0.79800
O49         O  0.12431599  0.18080528  0.24660533    -0.56300
O50         O  0.16136613  0.23709544  0.30265419    -0.54800
O51         O  0.20009309  0.19545094  0.30818755    -0.54800
O52         O  0.16855438  0.22136269  0.21328493    -0.53900
O53         O  0.52016538  0.47122086  0.30368556    -0.55100
C54         C  0.02691163  0.47377210  0.30072131     0.77500
O55         O  0.99042996  0.45376360  0.40890455    -0.56300
C56         C  0.50989502  0.45048508  0.29703250     0.77500
C57         C  0.06308148  0.41039480  0.35970949     0.79800
Cd58       Cd  0.02061118  0.44131165  0.35930551     1.37500
O59         O  0.00824236  0.45937657  0.30640225    -0.55100
O60         O  0.05146707  0.41441685  0.33353189    -0.54000
C61         C  0.99594612  0.47660053  0.40632291     0.79800
O62         O  0.05589505  0.42121264  0.38695429    -0.56300
O63         O  0.04352665  0.47318924  0.32207166    -0.54800
O64         O  0.98733928  0.40824348  0.36912325    -0.54800
O65         O  0.01587404  0.48191467  0.38935767    -0.58300
O66         O  0.02916696  0.04819045  0.25978968    -0.55100
C67         C  0.99350340  0.10919011  0.29939658     0.77500
O68         O  0.04102683  0.05987330  0.36072395    -0.56300
C69         C  0.02653711  0.02922188  0.27851878     0.77500
C70         C  0.07865364  0.10776369  0.29094223     0.79800
Cd71       Cd  0.03343090  0.07855735  0.30662916     1.37500
O72         O  0.00895161  0.10635078  0.27476073    -0.55100
O73         O  0.06097899  0.10774848  0.27169674    -0.54000
C74         C  0.02388693  0.07032462  0.37644417     0.79800
O75         O  0.07587198  0.09376271  0.31687271    -0.56300
O76         O  0.99459032  0.09555358  0.32526346    -0.54800
O77         O  0.02697339  0.03270221  0.31039892    -0.54800
O78         O  0.01595454  0.08866275  0.36214316    -0.53900
O79         O  0.44143885  0.06369632  0.30386125    -0.55100
C80         C  0.39334684  0.01889115  0.32427279     0.77500
O81         O  0.42359598  0.02912542  0.40594322    -0.56300
C82         C  0.45349358  0.08322437  0.31187165     0.77500
C83         C  0.37885929  0.09886365  0.35776508     0.79800
Cd84       Cd  0.41547217  0.06096594  0.35737753     1.37500
O85         O  0.41053513  0.03219482  0.30955669    -0.55100
O86         O  0.38401061  0.08566329  0.33221852    -0.54000
C87         C  0.44633460  0.03464241  0.40630756     0.79800
O88         O  0.38970848  0.09425378  0.38488873    -0.56300
O89         O  0.38557887  0.02565639  0.35378511    -0.54800
O90         O  0.44729166  0.09302297  0.34020377    -0.54800
O91         O  0.45284855  0.05462338  0.39106408    -0.53900
O92         O  0.38385740  0.47866672  0.23913284    -0.55100
C93         C  0.45760935  0.46179860  0.24484094     0.77500
O94         O  0.43461106  0.44091505  0.31571753    -0.56300
C95         C  0.37226319  0.48331913  0.26725242     0.77500
C96         C  0.38444428  0.40437135  0.24678818     0.79800
Cd97       Cd  0.40910107  0.44935080  0.26681308     1.37500
O98         O  0.44347210  0.47882819  0.24945948    -0.55100
O99         O  0.38608343  0.42285213  0.22709578    -0.54000
C100        C  0.42317881  0.45504406  0.33537092     0.79800
O101        O  0.39526795  0.40637463  0.27462315    -0.56300
O102        O  0.44788592  0.44059573  0.23970531    -0.54800
O103        O  0.37832019  0.47294268  0.29413732    -0.54800
O104        O  0.40340937  0.46195864  0.32529303    -0.53900
C105        C  0.24652321  0.27329377  0.19023771     0.32700
C106        C  0.21017777  0.23605742  0.19492887     0.32700
C107        C  0.22395504  0.27800118  0.21329698    -0.03500
C108        C  0.23503871  0.26569099  0.15575162    -0.04300
C109        C  0.25397463  0.24855461  0.20355987    -0.04200
C110        C  0.20553747  0.25958246  0.21510794    -0.03500
C111        C  0.21635695  0.24651524  0.15783655    -0.04300
C112        C  0.23571283  0.22976996  0.20557676    -0.04200
C113        C  0.18564595  0.26911649  0.23231135    -0.29600
N114        N  0.19192077  0.29231904  0.24160941     0.16900
C115        C  0.21539699  0.29786454  0.23094677    -0.29600
H116        H  0.22519166  0.31526933  0.23544112     0.18900
C117        C  0.20978346  0.24195205  0.12419380    -0.28600
N118        N  0.22368773  0.25747958  0.10221275     0.15700
C119        C  0.23899563  0.27183912  0.12144306    -0.28500
C120        C  0.24604683  0.20935119  0.21782975    -0.28800
N121        N  0.26958924  0.21529434  0.22421150     0.16200
H122        H  0.23715106  0.19150935  0.22347945     0.18800
C123        C  0.27472341  0.23917621  0.21552949    -0.28800
H124        H  0.29195859  0.24913967  0.21957563     0.18800
H125        H  0.25252643  0.28554226  0.11104622     0.18800
H126        H  0.16786577  0.26015687  0.23832585     0.18900
H127        H  0.19634594  0.22797230  0.11644317     0.18800
C128        C  0.23011888  0.26977433  0.91644977     0.32700
C129        C  0.19435436  0.23158435  0.91443253     0.32700
C130        C  0.23717751  0.24663393  0.89829564    -0.03500
C131        C  0.22048992  0.25920430  0.95238305    -0.04300
C132        C  0.20633266  0.27554284  0.90133474    -0.04200
C133        C  0.21952734  0.22727393  0.89733621    -0.03500
C134        C  0.20199785  0.23956801  0.95154534    -0.04300
C135        C  0.18815014  0.25654333  0.90015985    -0.04200
C136        C  0.23221066  0.20627885  0.89436950    -0.29600
N137        N  0.25640003  0.21254881  0.89210754     0.16900
C138        C  0.25955621  0.23702760  0.89553879    -0.29600
H139        H  0.27704697  0.24730637  0.89610043     0.18900
C140        C  0.19603177  0.23327212  0.98567784    -0.28600
N141        N  0.20990632  0.24782079  0.00686750     0.15700
C142        C  0.22472014  0.26368333  0.98660651    -0.28500
C143        C  0.16627708  0.26783053  0.90223864    -0.28800
N144        N  0.17078897  0.29236862  0.90381156     0.16200
H145        H  0.14813482  0.25890795  0.90389668     0.18800
C146        C  0.19507023  0.29714921  0.90397592    -0.28800
H147        H  0.20408414  0.31519766  0.90685905     0.18800
H148        H  0.23764111  0.27764606  0.99574062     0.18800
H149        H  0.22451947  0.18756447  0.89433183     0.18900
H150        H  0.18256827  0.21899595  0.99449771     0.18800
C151        C  0.46529729  0.01616627  0.41600171     0.32700
C152        C  0.48580384  0.49117366  0.41598650     0.32700
C153        C  0.49174917  0.02426609  0.40310659    -0.03500
C154        C  0.46973414  0.00649257  0.45312416    -0.04300
C155        C  0.46042949  0.99185589  0.39686535    -0.04200
C156        C  0.50898340  0.00694078  0.40513413    -0.03500
C157        C  0.48744889  0.98896951  0.45467406    -0.04300
C158        C  0.46263841  0.48185374  0.39784433    -0.04200
C159        C  0.01495658  0.03636897  0.41623771    -0.29600
N160        N  0.01065489  0.05889269  0.40522336     0.16900
C161        C  0.50339161  0.04419916  0.38570100    -0.29600
H162        H  0.49517009  0.06015328  0.37676948     0.18900
C163        C  0.47888525  0.49477968  0.48680103    -0.28600
N164        N  0.47434189  0.99665485  0.50864700     0.15700
C165        C  0.46196495  0.01050979  0.48714477    -0.28500
C166        C  0.45572399  0.46236280  0.37666131    -0.28800
N167        N  0.43346440  0.46577591  0.36523264     0.16200
H168        H  0.46656717  0.44781755  0.36755489     0.18800
C169        C  0.44204375  0.98112595  0.37781426    -0.28800
H170        H  0.42591461  0.98937644  0.37023793     0.18800
H171        H  0.44859238  0.02300897  0.49569092     0.18800
H172        H  0.03228211  0.02855139  0.41212929     0.18900
H173        H  0.49223155  0.48339033  0.49650931     0.18800
C174        C  0.45165347  0.49273564  0.69535065     0.32700
C175        C  0.49502953  0.01715261  0.68900848     0.32700
C176        C  0.47553333  0.48618236  0.71018106    -0.03500
C177        C  0.47452298  0.98125428  0.65922810    -0.04300
C178        C  0.44952907  0.00923063  0.69032301    -0.04200
C179        C  0.49228355  0.00061285  0.72033904    -0.03500
C180        C  0.49460121  0.99902406  0.65845707    -0.04300
C181        C  0.46951645  0.02743075  0.68944942    -0.04200
C182        C  0.00068919  0.50795757  0.72926457    -0.29600
N183        N  0.99833174  0.48363194  0.73573187     0.16900
C184        C  0.48244942  0.46671807  0.72873922    -0.29600
H185        H  0.47108683  0.45041011  0.73602408     0.18900
C186        C  0.50124643  0.00352915  0.62407946    -0.28600
N187        N  0.48633102  0.98986247  0.60386368     0.15700
C188        C  0.45723128  0.49794636  0.62394372    -0.28500
C189        C  0.46149114  0.04670989  0.70883348    -0.28800
N190        N  0.43825486  0.04137247  0.72088156     0.16200
H191        H  0.47323637  0.06126728  0.71914272     0.18800
C192        C  0.43073844  0.01905919  0.70907055    -0.28800
H193        H  0.41458359  0.00867340  0.71940161     0.18800
H194        H  0.44387927  0.48452630  0.61445387     0.18800
H195        H  0.03040444  0.00965915  0.73692364     0.18900
H196        H  0.51457674  0.01768837  0.61445451     0.18800
O197        O  0.14572138  0.23028378  0.80708386    -0.55100
C198        C  0.19501899  0.18452242  0.79826249     0.77500
O199        O  0.18200273  0.19292225  0.88522801    -0.56300
C200        C  0.12568119  0.23406408  0.82310128     0.77500
C201        C  0.11757505  0.15443348  0.80994666     0.79800
Cd202      Cd  0.15116544  0.19226675  0.83863020     1.37500
O203        O  0.18460335  0.20431679  0.79607696    -0.55100
O204        O  0.12914480  0.17151024  0.79294768    -0.54000
C205        C  0.17528500  0.21140000  0.90183367     0.79800
O206        O  0.12134080  0.15395029  0.84205521    -0.56300
O207        O  0.18462691  0.16808513  0.81799469    -0.54800
O208        O  0.11742988  0.21826094  0.84528117    -0.54800
O209        O  0.15368593  0.21599592  0.89617208    -0.53900
O210        O  0.27114285  0.18345705  0.77852383    -0.55100
C211        C  0.31816372  0.22973844  0.80231452     0.77500
O212        O  0.26890413  0.17706000  0.86475068    -0.56300
C213        C  0.25797076  0.16550011  0.79156862     0.77500
C214        C  0.33970871  0.14765576  0.81763002     0.79800
Cd215      Cd  0.30243147  0.18106548  0.82058168     1.37500
O216        O  0.30696004  0.21635381  0.78077015    -0.55100
O217        O  0.33064092  0.15538961  0.79088682    -0.54000
C218        C  0.27453945  0.19792549  0.87707059     0.79800
O219        O  0.33161944  0.15546350  0.84633559    -0.56300
O220        O  0.32588332  0.21916349  0.82806954    -0.54800
O221        O  0.26753258  0.15227438  0.81303905    -0.54800
O222        O  0.29595422  0.20703866  0.87032433    -0.53900
O223        O  0.29424780  0.29846316  0.82344045    -0.55100
C224        C  0.24307229  0.35603905  0.85960300     0.77500
O225        O  0.26323528  0.30389680  0.92362057    -0.56300
C226        C  0.31125482  0.29065599  0.84044053     0.77500
C227        C  0.31671559  0.36568272  0.84135703     0.79800
Cd228      Cd  0.28230460  0.32705911  0.86762959     1.37500
O229        O  0.25027797  0.34202566  0.83555799    -0.55100
O230        O  0.30300224  0.35285587  0.82202152    -0.54000
C231        C  0.24934453  0.29037979  0.90493619     0.79800
O232        O  0.31473729  0.36066220  0.87365834    -0.56300
O233        O  0.25491007  0.35729330  0.88686054    -0.54800
O234        O  0.31518307  0.30041163  0.86956118    -0.54800
O235        O  0.25183851  0.29438657  0.87267319    -0.53900
O236        O  0.16749862  0.35362739  0.81156104    -0.55100
C237        C  0.12194512  0.30046893  0.81172309     0.77500
O238        O  0.16088493  0.33284986  0.89625474    -0.56300
C239        C  0.18034100  0.36326287  0.83479763     0.77500
C240        C  0.09620427  0.37634849  0.86017214     0.79800
Cd241      Cd  0.13307616  0.34211915  0.85216360     1.37500
O242        O  0.13636096  0.31768647  0.79926528    -0.55100
O243        O  0.10778701  0.37285508  0.83186291    -0.54000
C244        C  0.15406654  0.31030254  0.89691871     0.79800
O245        O  0.10155158  0.36379844  0.88566985    -0.56300
O246        O  0.10936921  0.30501794  0.83889030    -0.54800
O247        O  0.16970639  0.36693700  0.86384553    -0.54800
O248        O  0.13338142  0.30416809  0.88580361    -0.53900
O249        O  0.99451511  0.49062459  0.85767266    -0.55100
C250        C  0.96866908  0.42753137  0.84574659     0.77500
O251        O  0.00086285  0.45069602  0.77309140    -0.56300
C252        C  0.01357464  0.50482227  0.85390912     0.77500
C253        C  0.05326418  0.42454110  0.83574588     0.79800
Cd254      Cd  0.01381806  0.45564644  0.83071186     1.37500
O255        O  0.98300948  0.43349344  0.86931114    -0.55100
O256        O  0.04065449  0.42985881  0.86252411    -0.54000
C257        C  0.00856747  0.47212368  0.76373030     0.79800
O258        O  0.04810836  0.43417571  0.80787000    -0.56300
O259        O  0.97490959  0.43512526  0.81570072    -0.54800
O260        O  0.03338680  0.49492469  0.84780097    -0.54800
O261        O  0.02277770  0.48408092  0.78303927    -0.53900
O262        O  0.01541369  0.11631053  0.68146418    -0.55100
C263        C  0.06896734  0.05380228  0.64985743     0.77500
O264        O  0.03086340  0.04992597  0.70769724    -0.56300
C265        C  0.52379436  0.06158538  0.79787474     0.77500
C266        C  0.08157443  0.12122746  0.73745955     0.79800
Cd267      Cd  0.04913893  0.09061757  0.69369091     1.37500
O268        O  0.07437108  0.05545099  0.68118194    -0.55100
O269        O  0.06732325  0.10414822  0.75040222    -0.54000
C270        C  0.01071397  0.05649557  0.71972662     0.79800
O271        O  0.08121459  0.12374847  0.70510937    -0.56300
O272        O  0.05888848  0.07165404  0.63772506    -0.54800
O273        O  0.03774171  0.10604666  0.63747441    -0.54800
O274        O  0.00973680  0.07912166  0.72571644    -0.53900
O275        O  0.38347396  0.02712181  0.81797063    -0.55100
C276        C  0.46308992  0.05959018  0.84163396     0.77500
O277        O  0.44016195  0.06697158  0.76940875    -0.56300
C278        C  0.39266980  0.01403177  0.83992325     0.77500
C279        C  0.38546551  0.10130786  0.83659009     0.79800
Cd280      Cd  0.41428732  0.06079227  0.82262336     1.37500
O281        O  0.44711975  0.04331835  0.85242764    -0.55100
O282        O  0.39503790  0.09121890  0.86128854    -0.54000
C283        C  0.42827274  0.05101297  0.75234776     0.79800
O284        O  0.38996775  0.09297455  0.80689035    -0.56300
O285        O  0.45557428  0.07845349  0.82792877    -0.54800
O286        O  0.40821732  0.02444157  0.85891584    -0.54800
O287        O  0.40838386  0.04199117  0.76620672    -0.53900
O288        O  0.41606323  0.44554708  0.81014808    -0.55100
C289        C  0.36924436  0.49214789  0.78265043     0.77500
O290        O  0.41323485  0.46317686  0.69644792    -0.56300
C291        C  0.42538351  0.42607728  0.80026221     0.77500
C292        C  0.35556701  0.41099137  0.77957577     0.79800
Cd293      Cd  0.39290281  0.44972832  0.75983225     1.37500
O294        O  0.38508077  0.48299407  0.80006496    -0.55100
O295        O  0.36489361  0.42632867  0.80018053    -0.54000
C296        C  0.43086624  0.47468105  0.71092821     0.79800
O297        O  0.36235514  0.41393046  0.74776016    -0.56300
O298        O  0.36370783  0.48122474  0.75504324    -0.54800
O299        O  0.41978712  0.41758285  0.77110298    -0.54800
O300        O  0.43003083  0.47251612  0.74338474    -0.53900
C301        C  0.38878014  0.98738045  0.83829483    -0.13800
C302        C  0.35913105  0.51550746  0.79210160    -0.28900
H303        H  0.37310317  0.98030269  0.82461279     0.15300
H304        H  0.34744629  0.52283691  0.77361052     0.15800
C305        C  0.50483038  0.07024810  0.82189906    -0.13800
C306        C  0.48907518  0.05486176  0.83992928    -0.28900
H307        H  0.49993442  0.08880064  0.81735286     0.15300
H308        H  0.49360322  0.03619768  0.84442358     0.15800
C309        C  0.44357748  0.41493905  0.82019285    -0.13800
C310        C  0.45132910  0.42535670  0.84937439    -0.28900
H311        H  0.45460161  0.40212396  0.80630469     0.15300
H312        H  0.94707257  0.39918000  0.87540060     0.15800
C313        C  0.08074848  0.01155852  0.64264018    -0.13800
C314        C  0.07025666  0.03074591  0.63008111    -0.28900
H315        H  0.99446421  0.53872253  0.85643179     0.15300
H316        H  0.05737731  0.02775029  0.61004307     0.15800
C317        C  0.07732481  0.39408186  0.86304439    -0.13800
C318        C  0.07285775  0.40776825  0.83579155    -0.28900
H319        H  0.06679253  0.39557137  0.88725810     0.15300
H320        H  0.08339757  0.40591850  0.81163749     0.15800
C321        C  0.33408660  0.38574819  0.82698306    -0.13800
C322        C  0.33793151  0.39066775  0.79271850    -0.28900
H323        H  0.34415784  0.39680042  0.84537024     0.15300
H324        H  0.32841793  0.37932414  0.77409474     0.15800
C325        C  0.20698864  0.36622099  0.82995275    -0.13800
C326        C  0.22052268  0.36857535  0.85764713    -0.28900
H327        H  0.21499480  0.35972901  0.80581769     0.15300
H328        H  0.21258862  0.37506088  0.88184130     0.15800
C329        C  0.35832961  0.12996209  0.81463408    -0.13800
C330        C  0.36917711  0.12123575  0.84171112    -0.28900
H331        H  0.36256287  0.12319447  0.78889392     0.15300
H332        H  0.36514502  0.12783681  0.86758099     0.15800
C333        C  0.31849462  0.25659153  0.80084278    -0.13800
C334        C  0.32458592  0.26961180  0.82882117    -0.28900
H335        H  0.30758100  0.26444073  0.78181230     0.15300
H336        H  0.33554756  0.26172009  0.84776951     0.15800
C337        C  0.10064617  0.13636607  0.79242468    -0.13800
C338        C  0.09786729  0.13784261  0.75798711    -0.28900
H339        H  0.09055637  0.12201603  0.80758180     0.15300
H340        H  0.10826435  0.15231236  0.74340097     0.15800
C341        C  0.21922026  0.18187562  0.78121208    -0.13800
C342        C  0.23164892  0.16220439  0.78702222    -0.28900
H343        H  0.22876562  0.19840812  0.77047047     0.15300
H344        H  0.22210622  0.14595645  0.79861814     0.15800
C345        C  0.11335697  0.25672062  0.81906674    -0.13800
C346        C  0.12303694  0.27525327  0.79899693    -0.28900
H347        H  0.09921536  0.26007479  0.83868265     0.15300
H348        H  0.13715471  0.27193407  0.77935187     0.15800
C349        C  0.47108889  0.99593632  0.54610289    -0.13800
C350        C  0.48876491  0.98948989  0.56652729    -0.28900
H351        H  0.44078684  0.50061472  0.55532212     0.15300
H352        H  0.50641559  0.98592827  0.55472362     0.15800
C353        C  0.22414711  0.25902906  0.06470146    -0.13800
C354        C  0.20859860  0.24597648  0.04446895    -0.28900
H355        H  0.23804671  0.27155337  0.05238136     0.15300
H356        H  0.19469575  0.23333628  0.05661947     0.15800
C357        C  0.38425833  0.99542462  0.30957459    -0.13800
C358        C  0.39469675  0.98623381  0.28071866    -0.28900
H359        H  0.37248867  0.98352717  0.32663906     0.15300
H360        H  0.40665209  0.99806809  0.26382483     0.15800
C361        C  0.48521079  0.07981867  0.26571100    -0.13800
C362        C  0.47531015  0.09289205  0.29143633    -0.28900
H363        H  0.98290687  0.14441054  0.28158588     0.15300
H364        H  0.48637273  0.10740051  0.30341999     0.15800
C365        C  0.49281124  0.44671917  0.26940344    -0.13800
C366        C  0.48327672  0.46534279  0.25346142    -0.28900
H367        H  0.48432797  0.42827831  0.26739173     0.15300
H368        H  0.49096821  0.48395419  0.25683275     0.15800
C369        C  0.02770559  0.49148176  0.27209822    -0.13800
C370        C  0.02233445  0.00484802  0.26302938    -0.28900
H371        H  0.01044221  0.49431579  0.26101864     0.15300
H372        H  0.02077917  0.00486436  0.23528082     0.15800
C373        C  0.10323729  0.14187103  0.26101491    -0.13800
C374        C  0.10121435  0.12353178  0.28432288    -0.28900
H375        H  0.08804892  0.14526588  0.24544705     0.15300
H376        H  0.11602094  0.12110266  0.30105669     0.15800
C377        C  0.08372098  0.39383472  0.35817513    -0.13800
C378        C  0.08872935  0.37979421  0.33013632    -0.28900
H379        H  0.09469421  0.39295829  0.38044153     0.15300
H380        H  0.07733410  0.38064371  0.30829577     0.15800
C381        C  0.13674308  0.23901571  0.35712763    -0.13800
C382        C  0.13836304  0.26225687  0.36915768    -0.28900
H383        H  0.13010628  0.22532735  0.37625167     0.15300
H384        H  0.13431743  0.26433082  0.39661788     0.15800
C385        C  0.35116342  0.38193159  0.21787075    -0.13800
C386        C  0.36941770  0.38199224  0.23943233    -0.28900
H387        H  0.34907650  0.39781418  0.20188236     0.15300
H388        H  0.37074544  0.36650313  0.25649031     0.15800
C389        C  0.21640433  0.37505239  0.29272956    -0.13800
C390        C  0.23596061  0.36565199  0.30513763    -0.28900
H391        H  0.21781136  0.38240800  0.26669372     0.15300
H392        H  0.23477716  0.35831926  0.33118279     0.15800
C393        C  0.35130629  0.12448421  0.32567512    -0.13800
C394        C  0.36141216  0.11872737  0.35558570    -0.28900
H395        H  0.35580176  0.11406261  0.30273883     0.15300
H396        H  0.35730183  0.12911936  0.37867512     0.15800
C397        C  0.22882409  0.16421295  0.35708701    -0.13800
C398        C  0.20754464  0.15984428  0.34182850    -0.28900
H399        H  0.22969306  0.15718006  0.38307157     0.15300
H400        H  0.19364834  0.14841276  0.35624892     0.15800
C401        C  0.30044868  0.27357890  0.31438393    -0.13800
C402        C  0.32015586  0.26048956  0.31292777    -0.28900
H403        H  0.28397785  0.26640699  0.32860030     0.15300
H404        H  0.33629034  0.26731530  0.29766841     0.15800
O405        O  0.27179266  0.71256783  0.31985079    -0.55100
C406        C  0.23638780  0.65623124  0.28820239     0.77500
O407        O  0.29029654  0.71008599  0.23670210    -0.56300
C408        C  0.29031534  0.72642870  0.31002290     0.77500
C409        C  0.32279665  0.64520019  0.30259293     0.79800
Cd410      Cd  0.28462206  0.67806011  0.28355173     1.37500
O411        O  0.24392596  0.67025985  0.31211689    -0.55100
O412        O  0.30671873  0.65172209  0.32453691    -0.54000
C413        C  0.27157052  0.70245639  0.22132054     0.79800
O414        O  0.32115864  0.65332157  0.27224411    -0.56300
O415        O  0.25232275  0.64841070  0.26712263    -0.54800
O416        O  0.30778527  0.71637291  0.29476106    -0.54800
O417        O  0.26330189  0.68083139  0.22849873    -0.53900
O418        O  0.24059768  0.84596892  0.26758117    -0.55100
C419        C  0.27188908  0.78725661  0.28290936     0.77500
O420        O  0.25468304  0.82156181  0.17679215    -0.56300
C421        C  0.24977519  0.86770947  0.26401487     0.77500
C422        C  0.32431085  0.84682451  0.23393450     0.79800
Cd423      Cd  0.27537236  0.82715388  0.23348665     1.37500
O424        O  0.25298473  0.79594028  0.27218704    -0.55100
O425        O  0.31374722  0.83443597  0.25845770    -0.54000
C426        C  0.25939632  0.79927942  0.17563011     0.79800
O427        O  0.31262432  0.84901518  0.20702525    -0.56300
O428        O  0.29204009  0.79796605  0.27262712    -0.54800
O429        O  0.26877393  0.87053578  0.24441895    -0.54800
O430        O  0.27745016  0.79402766  0.19187156    -0.53900
O431        O  0.14596185  0.80747227  0.33313887    -0.55100
C432        C  0.19838951  0.87320879  0.30219208     0.77500
O433        O  0.15836088  0.82944640  0.23819848    -0.56300
C434        C  0.13069332  0.79848085  0.31211812     0.77500
C435        C  0.11704719  0.88041069  0.31956663     0.79800
Cd436      Cd  0.15296120  0.84502521  0.29864170     1.37500
O437        O  0.18916189  0.86113445  0.32831060    -0.55100
O438        O  0.12781498  0.86867989  0.34169702    -0.54000
C439        C  0.17431620  0.81494520  0.24643201     0.79800
O440        O  0.12264470  0.87577347  0.28809540    -0.56300
O441        O  0.18641581  0.87253203  0.27519815    -0.54800
O442        O  0.12215379  0.81308854  0.29130583    -0.54800
O443        O  0.18042077  0.81529357  0.27741334    -0.53900
O444        O  0.16621709  0.69716518  0.27707360    -0.55100
C445        C  0.12516309  0.74089448  0.26104962     0.77500
O446        O  0.18341923  0.70564590  0.18976231    -0.56300
C447        C  0.17660160  0.67796432  0.26931059     0.77500
C448        C  0.10757029  0.66420846  0.21211303     0.79800
Cd449      Cd  0.14535174  0.70086283  0.22347058     1.37500
O450        O  0.14082604  0.72821150  0.27352547    -0.55100
O451        O  0.11131360  0.67506470  0.24009051    -0.54000
C452        C  0.18025396  0.72587296  0.17592714     0.79800
O453        O  0.12115605  0.67125745  0.18626306    -0.56300
O454        O  0.11819140  0.73471827  0.23153645    -0.54800
O455        O  0.17178105  0.66828339  0.24060574    -0.54800
O456        O  0.15846672  0.73174197  0.17649637    -0.53900
O457        O  0.52103257  0.90588608  0.32302778    -0.55100
C458        C  0.01951385  0.97577904  0.31554271     0.77500
O459        O  0.99957390  0.95745629  0.43477265    -0.56300
C460        C  0.50742123  0.89143683  0.34213902     0.77500
C461        C  0.07051937  0.92043173  0.36947519     0.79800
Cd462      Cd  0.02547152  0.94754048  0.37811388     1.37500
O463        O  0.00387180  0.95996296  0.32850781    -0.55100
O464        O  0.06407203  0.93507801  0.34731714    -0.54000
C465        C  0.00437878  0.98037508  0.43270378     0.79800
O466        O  0.05827718  0.92040424  0.39804590    -0.56300
O467        O  0.03770159  0.98144331  0.33344528    -0.54800
O468        O  0.99456807  0.91267927  0.39254318    -0.54800
O469        O  0.02254234  0.98634439  0.41228265    -0.58300
O470        O  0.02391117  0.53801021  0.23944601    -0.55100
C471        C  0.98193396  0.60371129  0.26273480     0.77500
O472        O  0.02615553  0.57383019  0.32726381    -0.56300
C473        C  0.04211283  0.53279617  0.25621906     0.77500
C474        C  0.06008501  0.61574692  0.24676007     0.79800
Cd475      Cd  0.02432327  0.57915526  0.26468147     1.37500
O476        O  0.98565521  0.58734251  0.24006579    -0.55100
O477        O  0.04980403  0.60418740  0.22243244    -0.54000
C478        C  0.00540421  0.56212688  0.32950731     0.79800
O479        O  0.05400761  0.60941243  0.27748433    -0.56300
O480        O  0.99969441  0.61143436  0.28005989    -0.54800
O481        O  0.05445306  0.55025991  0.26966056    -0.54800
O482        O  0.99393549  0.55904353  0.30243660    -0.53900
O483        O  0.42347565  0.55133809  0.30120226    -0.55100
C484        C  0.36411153  0.52540006  0.31779076     0.77500
O485        O  0.40548504  0.53084501  0.40297596    -0.56300
C486        C  0.43453949  0.57243821  0.30023281     0.77500
C487        C  0.36422664  0.60086775  0.34821358     0.79800
Cd488      Cd  0.39673579  0.55989067  0.35229321     1.37500
O489        O  0.38670757  0.52710383  0.30983274    -0.55100
O490        O  0.38087863  0.59705873  0.32575001    -0.54000
C491        C  0.42721569  0.53926573  0.40666510     0.79800
O492        O  0.36408158  0.58777864  0.37526212    -0.56300
O493        O  0.35728996  0.53690238  0.34438544    -0.54800
O494        O  0.42790252  0.58759241  0.32286233    -0.54800
O495        O  0.43179138  0.56019497  0.39315900    -0.53900
O496        O  0.41285049  0.95096981  0.25713769    -0.55100
C497        C  0.45601283  0.88797376  0.29076086     0.77500
O498        O  0.41746699  0.92869224  0.35239297    -0.56300
C499        C  0.39732830  0.95970702  0.27840022     0.77500
C500        C  0.37733649  0.87927019  0.27691992     0.79800
Cd501      Cd  0.41450629  0.91438448  0.29274292     1.37500
O502        O  0.45155820  0.90055441  0.26453394    -0.55100
O503        O  0.39076328  0.89003011  0.25314120    -0.54000
C504        C  0.43622053  0.94296777  0.34426112     0.79800
O505        O  0.38145742  0.88475623  0.30795872    -0.56300
O506        O  0.43944815  0.88496061  0.31463134    -0.54800
O507        O  0.38671643  0.94530471  0.30091548    -0.54800
O508        O  0.44477529  0.94296808  0.31339001    -0.53900
C509        C  0.23978334  0.77929887  0.16872845     0.32700
C510        C  0.20163600  0.74447153  0.16911686     0.32700
C511        C  0.21701104  0.78470352  0.19099205    -0.03500
C512        C  0.22904149  0.77384355  0.13306121    -0.04300
C513        C  0.24537543  0.75348625  0.18091035    -0.04200
C514        C  0.19765968  0.76742279  0.19119140    -0.03500
C515        C  0.20941578  0.75585921  0.13314035    -0.04300
C516        C  0.22611605  0.73580820  0.18093708    -0.04200
C517        C  0.17868265  0.77713320  0.21072284    -0.29600
N518        N  0.18636196  0.79979170  0.22177351     0.16900
C519        C  0.20979121  0.80426014  0.21059020    -0.29600
H520        H  0.22060931  0.82072754  0.21672603     0.18900
C521        C  0.20303602  0.75308554  0.09914473    -0.28600
N522        N  0.21798528  0.76863265  0.07852465     0.15700
C523        C  0.23374420  0.78127514  0.09920782    -0.28500
C524        C  0.23479869  0.71429906  0.19293711    -0.28800
N525        N  0.25850870  0.71846538  0.20051197     0.16200
H526        H  0.22447615  0.69700000  0.19758935     0.18800
C527        C  0.26511735  0.74235104  0.19332405    -0.28800
H528        H  0.28281340  0.75103041  0.19817880     0.18800
H529        H  0.24793556  0.79477334  0.09016038     0.18800
H530        H  0.16076985  0.76842952  0.21670038     0.18900
H531        H  0.18872701  0.74046995  0.09032285     0.18800
C532        C  0.21975727  0.78792701  0.89243528     0.32700
C533        C  0.18117247  0.75215116  0.89243136     0.32700
C534        C  0.22328237  0.76525077  0.87018001    -0.03500
C535        C  0.21198933  0.77582145  0.92823057    -0.04300
C536        C  0.19500221  0.79602087  0.88120934    -0.04200
C537        C  0.20394640  0.74773795  0.87036756    -0.03500
C538        C  0.19230972  0.75750967  0.92812401    -0.04300
C539        C  0.17568155  0.77807267  0.88092632    -0.04200
C540        C  0.20993063  0.72993619  0.84749637    -0.29600
N541        N  0.23246879  0.73581260  0.83399143     0.16900
C542        C  0.24104295  0.75728081  0.84724113    -0.29600
H543        H  0.25822600  0.76669690  0.83901528     0.18900
C544        C  0.18783715  0.74982284  0.96192564    -0.28600
N545        N  0.20359981  0.76242962  0.98266612     0.15700
C546        C  0.21840135  0.77825486  0.96224001    -0.28500
C547        C  0.15695659  0.78833986  0.86491828    -0.28800
N548        N  0.16421357  0.81174735  0.85587674     0.16200
H549        H  0.14013724  0.77899731  0.85744092     0.18800
C550        C  0.18715566  0.81661341  0.86600024    -0.28800
H551        H  0.19799554  0.83324832  0.85913236     0.18800
H552        H  0.23261336  0.79091134  0.97122488     0.18800
H553        H  0.19848835  0.71428333  0.83965899     0.18900
H554        H  0.17373658  0.73621462  0.97092480     0.18800
C555        C  0.44804030  0.52257364  0.41525747     0.32700
C556        C  0.49985446  0.98172543  0.41986999     0.32700
C557        C  0.47303886  0.53223773  0.39901810    -0.03500
C558        C  0.45538070  0.51451163  0.45176295    -0.04300
C559        C  0.44391142  0.49753817  0.39807313    -0.04200
C560        C  0.49170759  0.51652083  0.39977819    -0.03500
C561        C  0.47487688  0.49874876  0.45225053    -0.04300
C562        C  0.47779403  0.97486031  0.39878133    -0.04200
C563        C  0.00171056  0.53001610  0.37285154    -0.29600
N564        N  0.99540441  0.55165295  0.36086973     0.16900
C565        C  0.48264289  0.55301096  0.38132008    -0.29600
H566        H  0.47305292  0.56837115  0.37340451     0.18900
C567        C  0.48979952  0.98347733  0.48887738    -0.28600
N568        N  0.46263730  0.50691198  0.50699178     0.15700
C569        C  0.44821168  0.51864275  0.48585901    -0.28500
C570        C  0.46986129  0.95449862  0.38067065    -0.28800
N571        N  0.44792639  0.95830629  0.36880994     0.16200
H572        H  0.47939227  0.93819227  0.37566341     0.18800
C573        C  0.42613777  0.48697864  0.37830460    -0.28800
H574        H  0.41010707  0.49522174  0.37048225     0.18800
H575        H  0.43349719  0.52948746  0.49470580     0.18800
H576        H  0.01752148  0.52117330  0.36306269     0.18900
H577        H  0.50190508  0.97073621  0.49854852     0.18800
C578        C  0.45675686  0.98242129  0.69139007     0.32700
C579        C  0.48975076  0.52910840  0.69509933     0.32700
C580        C  0.47334239  0.98324060  0.72156206    -0.03500
C581        C  0.46153740  0.50233324  0.65848240    -0.04300
C582        C  0.44649076  0.51704013  0.71220212    -0.04200
C583        C  0.49434768  0.50427376  0.71042783    -0.03500
C584        C  0.48129741  0.52092935  0.65858746    -0.04300
C585        C  0.46538291  0.53517968  0.71202959    -0.04200
C586        C  0.01214554  0.00197669  0.74353324    -0.29600
N587        N  0.00566308  0.97776495  0.74217296     0.16900
C588        C  0.47464063  0.97011498  0.75155093    -0.29600
H589        H  0.46368865  0.95363932  0.75879712     0.18900
C590        C  0.48790526  0.52639997  0.62451117    -0.28600
N591        N  0.47334821  0.51252810  0.60352986     0.15700
C592        C  0.46960806  0.97686691  0.62483358    -0.28500
C593        C  0.45482822  0.55721902  0.71397850    -0.28800
N594        N  0.43039425  0.55291026  0.71628296     0.16200
H595        H  0.46435516  0.57520835  0.71310615     0.18800
C596        C  0.42508809  0.52856558  0.71461041    -0.28800
H597        H  0.40687190  0.51981473  0.71414112     0.18800
H598        H  0.45393710  0.96617441  0.61586839     0.18800
H599        H  0.01479710  0.52059798  0.73870067     0.18900
H600        H  0.50257986  0.53939701  0.61554811     0.18800
O601        O  0.16030874  0.72569110  0.78033616    -0.55100
C602        C  0.17461581  0.66084461  0.79840397     0.77500
O603        O  0.14501082  0.73564578  0.86424368    -0.56300
C604        C  0.13982619  0.73436362  0.77688318     0.77500
C605        C  0.09852219  0.66941613  0.81627101     0.79800
Cd606      Cd  0.14429817  0.69766893  0.82741653     1.37500
O607        O  0.17776161  0.68292191  0.78848213    -0.55100
O608        O  0.11163193  0.68020786  0.79265173    -0.54000
C609        C  0.16200767  0.73130117  0.88330563     0.79800
O610        O  0.10573194  0.67232995  0.84669650    -0.56300
O611        O  0.16062683  0.65679828  0.82499167    -0.54800
O612        O  0.12210812  0.72577701  0.79622650    -0.54800
O613        O  0.16632113  0.70883643  0.88421946    -0.53900
O614        O  0.23194765  0.66710216  0.71960941    -0.55100
C615        C  0.26685771  0.74461355  0.71837951     0.77500
O616        O  0.26540551  0.72297214  0.79971483    -0.56300
C617        C  0.22018432  0.66176528  0.74806930     0.77500
C618        C  0.29942712  0.67182035  0.76111177     0.79800
Cd619      Cd  0.25913334  0.69860182  0.74777081     1.37500
O620        O  0.24633659  0.73330425  0.71461938    -0.55100
O621        O  0.29151667  0.67212110  0.73100776    -0.54000
C622        C  0.24264138  0.72334219  0.80560726     0.79800
O623        O  0.28871206  0.68391619  0.78419074    -0.56300
O624        O  0.28473780  0.73176160  0.72161870    -0.54800
O625        O  0.22671508  0.67335178  0.77438948    -0.54800
O626        O  0.22872188  0.71207520  0.78529506    -0.53900
O627        O  0.26188365  0.81058471  0.77719519    -0.55100
C628        C  0.24389271  0.86989637  0.80130240     0.77500
O629        O  0.23777767  0.82856356  0.87432389    -0.56300
C630        C  0.27919197  0.79674395  0.77881143     0.77500
C631        C  0.32004356  0.86120965  0.81916300     0.79800
Cd632      Cd  0.27264914  0.83438802  0.82941884     1.37500
O633        O  0.24545627  0.84865533  0.78893326    -0.55100
O634        O  0.30733628  0.85278024  0.79538765    -0.54000
C635        C  0.24138068  0.80723446  0.88417563     0.79800
O636        O  0.31121296  0.85714912  0.84974209    -0.56300
O637        O  0.25530315  0.87496270  0.82816606    -0.54800
O638        O  0.29244162  0.79966343  0.80433080    -0.54800
O639        O  0.26281854  0.80123825  0.87672269    -0.53900
O640        O  0.18746397  0.85782526  0.73020423    -0.55100
C641        C  0.15254742  0.79576502  0.73892668     0.77500
O642        O  0.13819185  0.81589380  0.81039345    -0.56300
C643        C  0.19400527  0.87286564  0.75334326     0.77500
C644        C  0.11114742  0.87017668  0.73562177     0.79800
Cd645      Cd  0.14940173  0.84436293  0.76157044     1.37500
O646        O  0.17101199  0.81081518  0.73499768    -0.55100
O647        O  0.12658486  0.86055599  0.71572658    -0.54000
C648        C  0.15438479  0.82539230  0.82907916     0.79800
O649        O  0.11325436  0.86771201  0.76768076    -0.56300
O650        O  0.13234839  0.80447952  0.74680271    -0.54800
O651        O  0.17842295  0.87708324  0.77731149    -0.54800
O652        O  0.16393662  0.84623060  0.82001807    -0.53900
O653        O  0.07796327  0.96951245  0.65776442    -0.55100
C654        C  0.99561833  0.92418654  0.63370001     0.77500
O655        O  0.04101474  0.96916151  0.71019323    -0.56300
C656        C  0.06952067  0.98622233  0.64072429     0.77500
C657        C  0.07216406  0.90505800  0.67752622     0.79800
Cd658      Cd  0.04116522  0.94180525  0.66126054     1.37500
O659        O  0.01051789  0.90968451  0.64405723    -0.55100
O660        O  0.05824838  0.91491704  0.69945797    -0.54000
C661        C  0.01986519  0.96207799  0.72144945     0.79800
O662        O  0.07091102  0.91118797  0.64615058    -0.56300
O663        O  0.00383794  0.94617455  0.62858755    -0.54800
O664        O  0.04958935  0.98066633  0.62668487    -0.54800
O665        O  0.01042814  0.94268753  0.70876849    -0.53900
O666        O  0.97102941  0.61366793  0.78776575    -0.55100
C667        C  0.02124303  0.56371987  0.80609745     0.77500
O668        O  0.98513932  0.56112854  0.74412988    -0.56300
C669        C  0.49656428  0.61593174  0.76307094     0.77500
C670        C  0.04848598  0.63249013  0.76781741     0.79800
Cd671      Cd  0.00706252  0.59815563  0.75714023     1.37500
O672        O  0.00233137  0.57526211  0.81225844    -0.55100
O673        O  0.03228206  0.62649216  0.79105333    -0.54000
C674        C  0.98738785  0.55920402  0.71175628     0.79800
O675        O  0.04522758  0.62355706  0.73796731    -0.56300
O676        O  0.03364889  0.56890029  0.77833881    -0.54800
O677        O  0.97925973  0.62694025  0.73591534    -0.54800
O678        O  0.00090154  0.57612583  0.69647028    -0.53900
O679        O  0.38807187  0.57057199  0.82208792    -0.55100
C680        C  0.43296645  0.62304316  0.79259500     0.77500
O681        O  0.39245345  0.56347044  0.73866519    -0.56300
C682        C  0.37123102  0.55686232  0.80959064     0.77500
C683        C  0.35201310  0.63072017  0.75583103     0.79800
Cd684      Cd  0.38842690  0.59998743  0.77371312     1.37500
O685        O  0.41882143  0.61248403  0.81576402    -0.55100
O686        O  0.35853145  0.62958074  0.78657369    -0.54000
C687        C  0.41372935  0.57026910  0.72739856     0.79800
O688        O  0.36292228  0.61818152  0.73345449    -0.56300
O689        O  0.42405685  0.62729834  0.76405039    -0.54800
O690        O  0.35930866  0.56601261  0.78652216    -0.54800
O691        O  0.42065019  0.59254109  0.73071695    -0.53900
O692        O  0.45810625  0.90733360  0.77579461    -0.55100
C693        C  0.41252570  0.95588951  0.81148835     0.77500
O694        O  0.44342377  0.93927927  0.69816622    -0.56300
C695        C  0.45713183  0.88883715  0.75615498     0.77500
C696        C  0.37507275  0.89445875  0.76861922     0.79800
Cd697      Cd  0.42027121  0.92408651  0.75420640     1.37500
O698        O  0.43212352  0.94508922  0.80827371    -0.55100
O699        O  0.39114609  0.89802145  0.79030819    -0.54000
C700        C  0.43785489  0.96124222  0.70063695     0.79800
O701        O  0.38021609  0.90343166  0.73868995    -0.56300
O702        O  0.39719760  0.95154871  0.78884160    -0.54800
O703        O  0.43967256  0.88713837  0.73619369    -0.54800
O704        O  0.42052818  0.96438861  0.72236363    -0.53900
C705        C  0.36889589  0.53032023  0.81623126    -0.13800
C706        C  0.40858774  0.97439862  0.83826447    -0.28900
H707        H  0.38110024  0.52318246  0.83415629     0.15300
H708        H  0.42460160  0.98157611  0.85112519     0.15800
C709        C  0.47427198  0.62904522  0.76765338    -0.13800
C710        C  0.45943651  0.62603581  0.79621152    -0.28900
H711        H  0.46748264  0.63643076  0.74438855     0.15300
H712        H  0.46628915  0.61866685  0.81943217     0.15800
C713        C  0.47433165  0.86917229  0.75607522    -0.13800
C714        C  0.49702312  0.86968003  0.76770493    -0.28900
H715        H  0.46818385  0.85247678  0.74305592     0.15300
H716        H  0.96323182  0.90079596  0.65005578     0.15800
C717        C  0.01193787  0.53142437  0.85011480    -0.13800
C718        C  0.02807461  0.54377252  0.82819696    -0.28900
H719        H  0.09397510  0.01483140  0.66217342     0.15300
H720        H  0.04489747  0.53567580  0.82031519     0.15800
C721        C  0.09188592  0.88409673  0.72252681    -0.13800
C722        C  0.08962877  0.88805743  0.68872721    -0.28900
H723        H  0.07989880  0.89233477  0.74157494     0.15300
H724        H  0.10170299  0.88011806  0.66951815     0.15800
C725        C  0.34387328  0.87494001  0.81089538    -0.13800
C726        C  0.35148280  0.88070722  0.77792238    -0.28900
H727        H  0.35514868  0.88054569  0.83197552     0.15300
H728        H  0.33977216  0.87574189  0.75705768     0.15800
C729        C  0.21959733  0.88181545  0.75510481    -0.13800
C730        C  0.22789423  0.88691725  0.78634095    -0.28900
H731        H  0.23180375  0.87376194  0.73612499     0.15300
H732        H  0.21686752  0.89674175  0.80488638     0.15800
C733        C  0.31996984  0.65801660  0.76979618    -0.13800
C734        C  0.33238046  0.64550963  0.74618656    -0.28900
H735        H  0.32475713  0.65791139  0.79654903     0.15300
H736        H  0.32763671  0.64556099  0.71942067     0.15800
C737        C  0.26845484  0.77059496  0.72855549    -0.13800
C738        C  0.28355637  0.77722727  0.75365466    -0.28900
H739        H  0.25334789  0.78152741  0.72363505     0.15300
H740        H  0.29783492  0.76550303  0.75969206     0.15800
C741        C  0.07617096  0.65409899  0.80833508    -0.13800
C742        C  0.07023610  0.64876927  0.77558536    -0.28900
H743        H  0.06478286  0.64640053  0.82985057     0.15300
H744        H  0.08207149  0.65573143  0.75404954     0.15800
C745        C  0.18383857  0.64012811  0.77795148    -0.13800
C746        C  0.20093836  0.64183403  0.75168074    -0.28900
H747        H  0.17344988  0.62263170  0.78153683     0.15300
H748        H  0.20268239  0.62615342  0.73488005     0.15800
C749        C  0.13634079  0.75480983  0.75379200    -0.13800
C750        C  0.15505557  0.76926026  0.74019939    -0.28900
H751        H  0.11814032  0.76125716  0.75485242     0.15300
H752        H  0.17335579  0.76310346  0.73945226     0.15800
C753        C  0.45898696  0.50555501  0.54440970    -0.13800
C754        C  0.47677773  0.51248228  0.56596006    -0.28900
H755        H  0.45430853  0.00183546  0.55818989     0.15300
H756        H  0.49425779  0.51955613  0.55448411     0.15800
C757        C  0.21833034  0.77195259  0.04114269    -0.13800
C758        C  0.20330271  0.75898869  0.02003515    -0.28900
H759        H  0.23150574  0.78564588  0.02973395     0.15300
H760        H  0.19014396  0.74527403  0.03144052     0.15800
C761        C  0.34604133  0.51336110  0.29522214    -0.13800
C762        C  0.35129934  0.49840685  0.26878847    -0.28900
H763        H  0.32797417  0.52007082  0.29705032     0.15300
H764        H  0.33769883  0.49457085  0.24995449     0.15800
C765        C  0.46736164  0.56205312  0.25821094    -0.13800
C766        C  0.45537106  0.57900338  0.27591730    -0.28900
H767        H  0.94245794  0.60047485  0.26022457     0.15300
H768        H  0.46400722  0.59731160  0.27872494     0.15800
C769        C  0.48692705  0.87659859  0.32826445    -0.13800
C770        C  0.48066453  0.88065852  0.29587891    -0.28900
H771        H  0.47318974  0.86923487  0.34728772     0.15300
H772        H  0.49459495  0.88743043  0.27673277     0.15800
C773        C  0.01778933  0.98299981  0.27897916    -0.13800
C774        C  0.04675390  0.50765475  0.26555935    -0.28900
H775        H  0.01207123  0.96789906  0.26243344     0.15300
H776        H  0.06374986  0.50507950  0.27752257     0.15800
C777        C  0.08866961  0.64391252  0.21121289    -0.13800
C778        C  0.07818094  0.63613598  0.24150233    -0.28900
H779        H  0.08424277  0.63498228  0.18717186     0.15300
H780        H  0.08349049  0.64505747  0.26521446     0.15800
C781        C  0.09050490  0.90359913  0.36187413    -0.13800
C782        C  0.09876625  0.89865802  0.32918521    -0.28900
H783        H  0.09723322  0.89379616  0.38323472     0.15300
H784        H  0.09121140  0.90794992  0.30799708     0.15800
C785        C  0.11704502  0.76314060  0.27819791    -0.13800
C786        C  0.12646658  0.77178660  0.30753371    -0.28900
H787        H  0.10696850  0.77495805  0.26268384     0.15300
H788        H  0.13674885  0.76006599  0.32288862     0.15800
C789        C  0.34834611  0.85946732  0.23786899    -0.13800
C790        C  0.35708544  0.86174092  0.26938678    -0.28900
H791        H  0.35728664  0.86946905  0.21606092     0.15300
H792        H  0.34745753  0.85245360  0.29130868     0.15800
C793        C  0.22056770  0.88962097  0.30412618    -0.13800
C794        C  0.24109131  0.88884986  0.28382469    -0.28900
H795        H  0.21898725  0.90540385  0.32078190     0.15300
H796        H  0.25420951  0.90455893  0.28508077     0.15800
C797        C  0.34257262  0.62895391  0.31103030    -0.13800
C798        C  0.34537923  0.61882477  0.34242241    -0.28900
H799        H  0.35514549  0.62467795  0.28981024     0.15300
H800        H  0.33261609  0.62247577  0.36369082     0.15800
C801        C  0.21040718  0.65255911  0.28078222    -0.13800
C802        C  0.19509070  0.66926796  0.29157438    -0.28900
H803        H  0.20599875  0.64127872  0.25865407     0.15300
H804        H  0.19976734  0.68096586  0.31317265     0.15800
C805        C  0.27045942  0.76444055  0.30355874    -0.13800
C806        C  0.29064184  0.75335950  0.31067888    -0.28900
H807        H  0.25282551  0.75423562  0.30626692     0.15300
H808        H  0.30829631  0.76330960  0.30629340     0.15800
O809        O  0.81960163  0.22274254  0.30018228    -0.55100
C810        C  0.74660809  0.18862458  0.32627410     0.77500
O811        O  0.77072743  0.18721528  0.23571358    -0.56300
C812        C  0.82981640  0.22253973  0.26995821     0.77500
C813        C  0.82123714  0.14733097  0.31702603     0.79800
Cd814      Cd  0.79300221  0.18659554  0.29024100     1.37500
O815        O  0.76614467  0.19878564  0.33749522    -0.55100
O816        O  0.81549687  0.16539501  0.33542311    -0.54000
C817        C  0.76938905  0.21047845  0.23727596     0.79800
O818        O  0.81257970  0.14628926  0.28717445    -0.56300
O819        O  0.74866282  0.17528778  0.29977157    -0.54800
O820        O  0.82645369  0.20322216  0.25224403    -0.54800
O821        O  0.77950814  0.22171551  0.26172647    -0.53900
O822        O  0.76101102  0.29461151  0.25716308    -0.55100
C823        C  0.82312458  0.28479057  0.24839273     0.77500
O824        O  0.78285009  0.29016868  0.16427244    -0.56300
C825        C  0.75187522  0.31369947  0.26871137     0.77500
C826        C  0.81913178  0.36141637  0.20976595     0.79800
Cd827      Cd  0.79121108  0.31606812  0.21595348     1.37500
O828        O  0.81252656  0.30134950  0.26447029    -0.55100
O829        O  0.79803582  0.35933709  0.22407290    -0.54000
C830        C  0.76117482  0.29631438  0.16462024     0.79800
O831        O  0.82625894  0.34307613  0.19342437    -0.56300
O832        O  0.82032051  0.28342282  0.21628931    -0.54800
O833        O  0.76160831  0.33390054  0.25721653    -0.54800
O834        O  0.75742119  0.31665874  0.17828644    -0.53900
O835        O  0.62836599  0.29197826  0.32518027    -0.55100
C836        C  0.69180156  0.33120824  0.30591944     0.77500
O837        O  0.64489477  0.30461197  0.22969106    -0.56300
C838        C  0.61856167  0.27864412  0.30227424     0.77500
C839        C  0.60871333  0.36367264  0.30290712     0.79800
Cd840      Cd  0.64305846  0.32559548  0.28525455     1.37500
O841        O  0.67890244  0.31149800  0.31243994    -0.55100
O842        O  0.61939169  0.35284922  0.32583954    -0.54000
C843        C  0.66572555  0.31399909  0.21961234     0.79800
O844        O  0.61388471  0.35729579  0.27214719    -0.56300
O845        O  0.68072053  0.34953687  0.29749313    -0.54800
O846        O  0.62000221  0.28697816  0.27189469    -0.54800
O847        O  0.67339036  0.33307189  0.23519012    -0.53900
O848        O  0.66731306  0.19437196  0.29934733    -0.55100
C849        C  0.62291626  0.22518083  0.27123809     0.77500
O850        O  0.68741032  0.19978909  0.18142115    -0.56300
C851        C  0.68999345  0.19329116  0.30017069     0.77500
C852        C  0.63565472  0.15158455  0.22552635     0.79800
Cd853      Cd  0.66078008  0.19735564  0.23819946     1.37500
O854        O  0.64456645  0.23474304  0.26823013    -0.55100
O855        O  0.65512066  0.15307491  0.24145129    -0.54000
C856        C  0.68347837  0.22205669  0.17760587     0.79800
O857        O  0.62944731  0.17090214  0.21192552    -0.56300
O858        O  0.61896318  0.20484140  0.25641805    -0.54800
O859        O  0.70144621  0.19397372  0.27097307    -0.54800
O860        O  0.66585281  0.22902323  0.19602154    -0.53900
O861        O  0.99469739  0.42226643  0.31759809    -0.55100
C862        C  0.57828520  0.49029679  0.31943334     0.77500
O863        O  0.50400155  0.45425985  0.39328444    -0.56300
C864        C  0.98158831  0.40834686  0.33795233     0.77500
C865        C  0.56974920  0.41253369  0.34817167     0.79800
Cd866      Cd  0.54178109  0.45664173  0.35299166     1.37500
O867        O  0.55595747  0.49116565  0.31424135    -0.55100
O868        O  0.55680164  0.41941165  0.32473305    -0.54000
C869        C  0.50736270  0.47468543  0.40808284     0.79800
O870        O  0.56845927  0.42467802  0.37602834    -0.56300
O871        O  0.58340751  0.47671604  0.34397825    -0.54800
O872        O  0.51398048  0.43291505  0.31656456    -0.54800
O873        O  0.52939663  0.48317382  0.40581272    -0.58300
O874        O  0.54788258  0.02334464  0.25479466    -0.55100
C875        C  0.51171707  0.07777668  0.26368973     0.77500
O876        O  0.53476238  0.07012424  0.33505495    -0.56300
C877        C  0.56684155  0.01442504  0.26499779     0.77500
C878        C  0.59790300  0.09698986  0.26155620     0.79800
Cd879      Cd  0.55785853  0.06340274  0.28027209     1.37500
O880        O  0.52118411  0.06077977  0.24664865    -0.55100
O881        O  0.58381269  0.08864833  0.23896674    -0.54000
C882        C  0.54092639  0.05088037  0.34898274     0.79800
O883        O  0.59315478  0.08999113  0.29227397    -0.56300
O884        O  0.52542558  0.09058496  0.28290655    -0.54800
O885        O  0.58335480  0.02924304  0.27570178    -0.54800
O886        O  0.55834482  0.04053349  0.33426598    -0.53900
O887        O  0.94318308  0.09296345  0.33611781    -0.55100
C888        C  0.89792219  0.04281405  0.33281081     0.77500
O889        O  0.91133100  0.04594183  0.42091865    -0.56300
C890        C  0.94644149  0.11491592  0.34596200     0.77500
C891        C  0.86736252  0.11178434  0.36844018     0.79800
Cd892      Cd  0.90968245  0.08182952  0.37903437     1.37500
O893        O  0.91842450  0.05485549  0.32947051    -0.55100
O894        O  0.87831717  0.10028066  0.34502693    -0.54000
C895        C  0.93133570  0.05230810  0.43397647     0.79800
O896        O  0.87492225  0.10904439  0.39855916    -0.56300
O897        O  0.88346922  0.04885928  0.35721867    -0.54800
O898        O  0.93480772  0.12070720  0.37338250    -0.54800
O899        O  0.93771544  0.07481003  0.42933189    -0.53900
O900        O  0.89981487  0.47699550  0.25791542    -0.55100
C901        C  0.92930028  0.40736128  0.28737412     0.77500
O902        O  0.88773908  0.44805718  0.35058380    -0.56300
C903        C  0.88273992  0.48646050  0.27547388     0.77500
C904        C  0.85209888  0.41076701  0.25926682     0.79800
Cd905      Cd  0.89075663  0.43795981  0.28817653     1.37500
O906        O  0.92720231  0.42190245  0.26231943    -0.55100
O907        O  0.87001616  0.41985452  0.24046007    -0.54000
C908        C  0.90901378  0.45897455  0.34838085     0.79800
O909        O  0.85221009  0.41444103  0.29156783    -0.56300
O910        O  0.91139157  0.40407252  0.30921180    -0.54800
O911        O  0.86737730  0.47215206  0.29226455    -0.54800
O912        O  0.92089064  0.45890758  0.31967162    -0.53900
C913        C  0.74023416  0.27730733  0.16100099     0.32700
C914        C  0.70322539  0.24114024  0.16445552     0.32700
C915        C  0.71519564  0.28539790  0.17437496    -0.03500
C916        C  0.73427257  0.26484454  0.12613931    -0.04300
C917        C  0.74397665  0.25518304  0.18383196    -0.04200
C918        C  0.69648191  0.26725210  0.17481033    -0.03500
C919        C  0.71517173  0.24612986  0.12751192    -0.04300
C920        C  0.72563764  0.23684813  0.18499590    -0.04200
C921        C  0.67550305  0.27792944  0.18616557    -0.29600
N922        N  0.68107824  0.30131336  0.19550662     0.16900
C923        C  0.70534330  0.30625181  0.18831077    -0.29600
H924        H  0.71517963  0.32323692  0.19489271     0.18900
C925        C  0.71222544  0.23869570  0.09354215    -0.28600
N926        N  0.72873333  0.25209610  0.07215341     0.15700
C927        C  0.74211819  0.26786921  0.09207569    -0.28500
C928        C  0.73392834  0.21736530  0.20292544    -0.28800
N929        N  0.75637550  0.22387801  0.21346112     0.16200
H930        H  0.72449291  0.19978707  0.20866650     0.18800
C931        C  0.76258428  0.24707726  0.20252509    -0.28800
H932        H  0.77953901  0.25710166  0.20777113     0.18800
H933        H  0.75629106  0.28113258  0.08231189     0.18800
H934        H  0.65735826  0.26917667  0.18958023     0.18900
H935        H  0.69874345  0.22496052  0.08518821     0.18800
C936        C  0.74054713  0.26252254  0.88584601     0.32700
C937        C  0.70819285  0.22139609  0.88364877     0.32700
C938        C  0.74874479  0.24078374  0.86377080    -0.03500
C939        C  0.73341825  0.24974804  0.92134393    -0.04300
C940        C  0.71514185  0.26648429  0.87324543    -0.04200
C941        C  0.73264465  0.22013940  0.86315837    -0.03500
C942        C  0.71674694  0.22873741  0.92021111    -0.04300
C943        C  0.69903400  0.24555824  0.87177535    -0.04200
C944        C  0.74241046  0.20404192  0.83974107    -0.29600
N945        N  0.76337277  0.21456377  0.82523111     0.16900
C946        C  0.76759957  0.23679308  0.83981866    -0.29600
H947        H  0.78226186  0.24972459  0.83090178     0.18900
C948        C  0.71026924  0.22232117  0.95409900    -0.28600
N949        N  0.72224710  0.23810082  0.97577346     0.15700
C950        C  0.73623630  0.25492930  0.95590245    -0.28500
C951        C  0.67583383  0.25328939  0.87661661    -0.28800
N952        N  0.67700815  0.27761348  0.88127395     0.16200
H953        H  0.65898512  0.24191490  0.87826115     0.18800
C954        C  0.70063272  0.28590069  0.87972931    -0.28800
H955        H  0.70664449  0.30470361  0.88466513     0.18800
H956        H  0.74677082  0.27062206  0.96555473     0.18800
H957        H  0.73414499  0.18673205  0.83139556     0.18900
H958        H  0.69699054  0.20773783  0.96240540     0.18800
C959        C  0.94986834  0.03314199  0.44258455     0.32700
C960        C  0.97724325  0.49609724  0.41460118     0.32700
C961        C  0.97571470  0.04156203  0.42820468    -0.03500
C962        C  0.95584464  0.02369693  0.47918645    -0.04300
C963        C  0.94444075  0.00867510  0.42397003    -0.04200
C964        C  0.99340950  0.02485230  0.42930662    -0.03500
C965        C  0.97409810  0.00643617  0.47976933    -0.04300
C966        C  0.95209375  0.48784574  0.40197371    -0.04200
C967        C  0.53033387  0.01684875  0.38907304    -0.29600
N968        N  0.52666760  0.03934513  0.37702099     0.16900
C969        C  0.98693978  0.06246427  0.41296961    -0.29600
H970        H  0.97816378  0.07824840  0.40459296     0.18900
C971        C  0.97513348  0.49960753  0.48437021    -0.28600
N972        N  0.96228194  0.01540290  0.53460346     0.15700
C973        C  0.94888014  0.02822986  0.51327706    -0.28500
C974        C  0.94279685  0.46765447  0.38484722    -0.28800
N975        N  0.91982192  0.47121957  0.37665590     0.16200
H976        H  0.95276831  0.45243712  0.37569043     0.18800
C977        C  0.92499637  0.99706827  0.40748665    -0.28800
H978        H  0.90808677  0.00451792  0.40166371     0.18800
H979        H  0.93525803  0.04041208  0.52199159     0.18800
H980        H  0.54678158  0.00773343  0.38340638     0.18900
H981        H  0.98698438  0.48587097  0.49187290     0.18800
C982        C  0.94226060  0.49530340  0.68980696     0.32700
C983        C  0.98873477  0.03835746  0.72239040     0.32700
C984        C  0.96591476  0.49294330  0.70828248    -0.03500
C985        C  0.96166979  0.01219138  0.68658466    -0.04300
C986        C  0.94468567  0.02989699  0.73872369    -0.04200
C987        C  0.99174558  0.01496317  0.74293683    -0.03500
C988        C  0.98146766  0.02896795  0.68646074    -0.04300
C989        C  0.96494067  0.04723248  0.73887920    -0.04200
C990        C  0.51230242  0.49547748  0.72934215    -0.29600
N991        N  0.50470967  0.47267136  0.74066614     0.16900
C992        C  0.97774518  0.47421417  0.72199520    -0.29600
H993        H  0.97149005  0.45513310  0.72416213     0.18900
C994        C  0.98916967  0.03304302  0.65210309    -0.28600
N995        N  0.97418992  0.01958734  0.63123054     0.15700
C996        C  0.94896233  0.50448907  0.62062907    -0.28500
C997        C  0.95604450  0.06983182  0.73518860    -0.28800
N998        N  0.93185994  0.06719220  0.73123455     0.16200
H999        H  0.96704833  0.08628315  0.72773250     0.18800
C1000       C  0.92477442  0.04309722  0.73386452    -0.28800
H1001       H  0.90769874  0.03527798  0.72483038     0.18800
H1002       H  0.93699420  0.49050945  0.60939161     0.18800
H1003       H  0.52207303  0.00767836  0.75470434     0.18900
H1004       H  0.00453749  0.04513455  0.64296756     0.18800
O1005       O  0.62529734  0.21465142  0.80890120    -0.55100
C1006       C  0.67944566  0.19431386  0.76431668     0.77500
O1007       O  0.69267464  0.18802626  0.84740998    -0.56300
C1008       C  0.61148232  0.21433343  0.83595520     0.77500
C1009       C  0.62808897  0.13529717  0.80869887     0.79800
Cd1010     Cd  0.65092229  0.18278204  0.82688341     1.37500
O1011       O  0.66702192  0.21021632  0.77916011    -0.55100
O1012       O  0.62785020  0.15430413  0.79059745    -0.54000
C1013       C  0.68900420  0.20079434  0.87396980     0.79800
O1014       O  0.63851327  0.13783466  0.83703227    -0.56300
O1015       O  0.67828977  0.17332407  0.77813485    -0.54800
O1016       O  0.61527368  0.19875931  0.85876028    -0.54800
O1017       O  0.66692369  0.19989689  0.88491602    -0.53900
O1018       O  0.74364901  0.21121503  0.70500329    -0.55100
C1019       C  0.79760065  0.25164016  0.70919055     0.77500
O1020       O  0.76487531  0.18946093  0.77617966    -0.56300
C1021       C  0.73491525  0.18934763  0.70900327     0.77500
C1022       C  0.82016097  0.17070069  0.69590531     0.79800
Cd1023     Cd  0.78434614  0.20216976  0.71991319     1.37500
O1024       O  0.78011101  0.24184611  0.69294218    -0.55100
O1025       O  0.80995980  0.18330928  0.67426930    -0.54000
C1026       C  0.77374918  0.20766447  0.79243145     0.79800
O1027       O  0.81318185  0.17243542  0.72719992    -0.56300
O1028       O  0.81198938  0.23758050  0.72199596    -0.54800
O1029       O  0.74988333  0.17295428  0.71000632    -0.54800
O1030       O  0.79038852  0.22098647  0.77676114    -0.53900
O1031       O  0.77591182  0.30488273  0.77303819    -0.55100
C1032       C  0.72934723  0.34245595  0.81287193     0.77500
O1033       O  0.77739177  0.28573416  0.86154196    -0.56300
C1034       C  0.79738140  0.29832269  0.77517028     0.77500
C1035       C  0.80880001  0.36790374  0.81721070     0.79800
Cd1036     Cd  0.77495829  0.32518353  0.82873271     1.37500
O1037       O  0.73777833  0.32463073  0.79652491    -0.55100
O1038       O  0.79618573  0.35795100  0.79430400    -0.54000
C1039       C  0.75757291  0.28617330  0.87931093     0.79800
O1040       O  0.80536842  0.35880773  0.84743126    -0.56300
O1041       O  0.74232794  0.35247363  0.83559777    -0.54800
O1042       O  0.80792406  0.30338798  0.80271178    -0.54800
O1043       O  0.74998767  0.30738456  0.88207615    -0.53900
O1044       O  0.64778040  0.31758703  0.79406886    -0.55100
C1045       C  0.59498530  0.27575536  0.82725897     0.77500
O1046       O  0.63574141  0.28215420  0.87530073    -0.56300
C1047       C  0.66302130  0.33376834  0.80514145     0.77500
C1048       C  0.59322195  0.35647443  0.86696615     0.79800
Cd1049     Cd  0.62216126  0.31774398  0.84820309     1.37500
O1050       O  0.60406945  0.29117537  0.80489427    -0.55100
O1051       O  0.59819978  0.34992962  0.83635225    -0.54000
C1052       C  0.65655892  0.29207669  0.88061472     0.79800
O1053       O  0.60094137  0.34392220  0.89094499    -0.56300
O1054       O  0.59389920  0.28254973  0.85849254    -0.54800
O1055       O  0.65669767  0.34505062  0.83217386    -0.54800
O1056       O  0.65899790  0.31520994  0.88054839    -0.53900
O1057       O  0.52117993  0.48633348  0.86665590    -0.55100
C1058       C  0.47766017  0.42863649  0.85338842     0.77500
O1059       O  0.53406769  0.46826502  0.78144376    -0.56300
C1060       C  0.54072404  0.49566940  0.85188122     0.77500
C1061       C  0.55955895  0.41173766  0.84613330     0.79800
Cd1062     Cd  0.52566571  0.44685490  0.83727894     1.37500
O1063       O  0.48681418  0.44594134  0.87148562    -0.55100
O1064       O  0.54796522  0.41927462  0.87264176    -0.54000
C1065       C  0.51388463  0.46116899  0.76969343     0.79800
O1066       O  0.55541203  0.42076085  0.81740272    -0.56300
O1067       O  0.49212245  0.41712159  0.83414600    -0.54800
O1068       O  0.55509063  0.48112476  0.83811899    -0.54800
O1069       O  0.50100272  0.44506425  0.78678702    -0.53900
O1070       O  0.53149088  0.04021826  0.79854294    -0.55100
C1071       C  0.58544273  0.00600659  0.73786402     0.77500
O1072       O  0.53864503  0.02491077  0.69181268    -0.56300
C1073       C  0.01845368  0.11498286  0.64896959     0.77500
C1074       C  0.59205816  0.08711499  0.75549959     0.79800
Cd1075     Cd  0.55625282  0.04758534  0.74282762     1.37500
O1076       O  0.56902584  0.00697562  0.76198282    -0.55100
O1077       O  0.58711899  0.06946060  0.77617653    -0.54000
C1078       C  0.51806024  0.03370735  0.69423433     0.79800
O1079       O  0.58196339  0.08570342  0.72673346    -0.56300
O1080       O  0.58835218  0.02426016  0.71768813    -0.54800
O1081       O  0.53182866  0.07547088  0.77336117    -0.54800
O1082       O  0.51734848  0.05280228  0.71235180    -0.53900
O1083       O  0.87778631  0.06849614  0.64319323    -0.55100
C1084       C  0.95507712  0.12613594  0.63145720     0.77500
O1085       O  0.93231106  0.10156750  0.69564565    -0.56300
C1086       C  0.89041985  0.05546544  0.62355470     0.77500
C1087       C  0.87011239  0.13667011  0.64976888     0.79800
Cd1088     Cd  0.90718363  0.10344347  0.64639889     1.37500
O1089       O  0.93864524  0.13693392  0.64789161    -0.55100
O1090       O  0.87979341  0.12834242  0.67561612    -0.54000
C1091       C  0.92056662  0.08303997  0.70891449     0.79800
O1092       O  0.87849613  0.13044024  0.62024909    -0.56300
O1093       O  0.94829488  0.10673883  0.61553082    -0.54800
O1094       O  0.90947435  0.06612189  0.60892730    -0.54800
O1095       O  0.90009914  0.07704908  0.69731618    -0.53900
O1096       O  0.92325113  0.44478624  0.80430872    -0.55100
C1097       C  0.87835155  0.49308773  0.78572651     0.77500
O1098       O  0.90148741  0.47404133  0.69970382    -0.56300
C1099       C  0.92227012  0.42161050  0.80254807     0.77500
C1100       C  0.85319396  0.41448394  0.76672151     0.79800
Cd1101     Cd  0.89534498  0.44905711  0.75593648     1.37500
O1102       O  0.89887427  0.48592498  0.79269578    -0.55100
O1103       O  0.86036231  0.42960775  0.78912289    -0.54000
C1104       C  0.92426492  0.47238936  0.69693210     0.79800
O1105       O  0.86421668  0.41638883  0.73708634    -0.56300
O1106       O  0.86573149  0.47960291  0.76597582    -0.54800
O1107       O  0.91211478  0.41199923  0.77690956    -0.54800
O1108       O  0.93091692  0.45405417  0.71275116    -0.53900
C1109       C  0.88484106  0.02857192  0.62183948    -0.13800
C1110       C  0.87048150  0.51695945  0.79765089    -0.28900
H1111       H  0.89775789  0.01791300  0.60746801     0.15300
H1112       H  0.88450263  0.53005380  0.80657288     0.15800
C1113       C  0.99891805  0.12006106  0.62590291    -0.13800
C1114       C  0.98089276  0.13385506  0.63648948    -0.28900
H1115       H  0.99628037  0.10754072  0.60452697     0.15300
H1116       H  0.98416728  0.14682522  0.65719224     0.15800
C1117       C  0.92903603  0.40595031  0.83103223    -0.13800
C1118       C  0.94696080  0.41075542  0.85275226    -0.28900
H1119       H  0.91658546  0.39004703  0.83686675     0.15300
H1120       H  0.44015115  0.43804136  0.86324128     0.15800
C1121       C  0.59723837  0.96186232  0.74282808    -0.13800
C1122       C  0.60113753  0.98530072  0.73201160    -0.28900
H1123       H  0.53084332  0.53363373  0.85631050     0.15300
H1124       H  0.61671767  0.98911398  0.71404977     0.15800
C1125       C  0.57899641  0.37781098  0.87331948    -0.13800
C1126       C  0.57680936  0.39293748  0.84681057    -0.28900
H1127       H  0.56961595  0.38038229  0.89817532     0.15300
H1128       H  0.58678320  0.39007019  0.82243503     0.15800
C1129       C  0.82681673  0.38875945  0.80849275    -0.13800
C1130       C  0.83353705  0.39515854  0.77540974    -0.28900
H1131       H  0.83560426  0.39822879  0.82954359     0.15300
H1132       H  0.82561689  0.38491946  0.75432606     0.15800
C1133       C  0.68832859  0.33657258  0.79097309    -0.13800
C1134       C  0.70476827  0.35016233  0.80844526    -0.28900
H1135       H  0.69425459  0.32272633  0.77302431     0.15300
H1136       H  0.69867226  0.36393691  0.82640649     0.15800
C1137       C  0.83957962  0.15478525  0.68659675    -0.13800
C1138       C  0.84978677  0.15252505  0.65474245    -0.28900
H1139       H  0.84622417  0.14478609  0.70788525     0.15300
H1140       H  0.84322254  0.16200162  0.63295649     0.15800
C1141       C  0.79793673  0.27738648  0.71944507    -0.13800
C1142       C  0.80913377  0.28381786  0.74827037    -0.28900
H1143       H  0.78302122  0.28761695  0.71150141     0.15300
H1144       H  0.82423130  0.27382979  0.75618999     0.15800
C1145       C  0.61627023  0.11169198  0.79727517    -0.13800
C1146       C  0.60768162  0.10889126  0.76536606    -0.28900
H1147       H  0.61366843  0.09678344  0.81578670     0.15300
H1148       H  0.61052785  0.12379729  0.74686774     0.15800
C1149       C  0.69616700  0.20058776  0.73432429    -0.13800
C1150       C  0.70905311  0.18346462  0.71859903    -0.28900
H1151       H  0.70172499  0.21986694  0.73049461     0.15300
H1152       H  0.70338366  0.16424406  0.72280152     0.15800
C1153       C  0.59367335  0.23287971  0.84219246    -0.13800
C1154       C  0.59074879  0.24984331  0.81804539    -0.28900
H1155       H  0.58909514  0.23674658  0.86908079     0.15300
H1156       H  0.59481272  0.24548096  0.79117982     0.15800
C1157       C  0.95887381  0.01500657  0.57220705    -0.13800
C1158       C  0.97755061  0.01826004  0.59364795    -0.28900
H1159       H  0.96130418  0.49091768  0.55306877     0.15300
H1160       H  0.99583348  0.02162967  0.58210137     0.15800
C1161       C  0.73223704  0.25169595  0.03463860    -0.13800
C1162       C  0.71862057  0.23738921  0.01333822    -0.28900
H1163       H  0.74671974  0.26394207  0.02315197     0.15300
H1164       H  0.70438897  0.22472613  0.02459247     0.15800
C1165       C  0.89105322  0.02167920  0.31129273    -0.13800
C1166       C  0.90724595  0.00980619  0.29174796    -0.28900
H1167       H  0.87306205  0.01288136  0.31749781     0.15300
H1168       H  0.92542306  0.01823209  0.28587610     0.15800
C1169       C  0.97747912  0.12958828  0.29952726    -0.13800
C1170       C  0.96038310  0.13377302  0.32442445    -0.28900
H1171       H  0.47417149  0.06534122  0.25363481     0.15300
H1172       H  0.95376529  0.15195815  0.32568821     0.15800
C1173       C  0.95916405  0.39533823  0.32639187    -0.13800
C1174       C  0.95302107  0.39812815  0.29361593    -0.28900
H1175       H  0.94511650  0.39051671  0.34636638     0.15300
H1176       H  0.96732848  0.40266808  0.27387684     0.15800
C1177       C  0.59761010  0.50174775  0.29548793    -0.13800
C1178       C  0.56821222  0.98810034  0.27046864    -0.28900
H1179       H  0.61492521  0.49346356  0.29455118     0.15300
H1180       H  0.58539291  0.98231973  0.27884042     0.15800
C1181       C  0.61954595  0.12919302  0.22583792    -0.13800
C1182       C  0.61857739  0.11457632  0.25348332    -0.28900
H1183       H  0.60543634  0.12730143  0.20735459     0.15300
H1184       H  0.63151738  0.11795784  0.27338946     0.15800
C1185       C  0.58604590  0.39196634  0.34264725    -0.13800
C1186       C  0.59117214  0.38280759  0.31081162    -0.28900
H1187       H  0.59499695  0.38527157  0.36460000     0.15300
H1188       H  0.58260303  0.39019574  0.28896696     0.15800
C1189       C  0.60327032  0.23476406  0.29385021    -0.13800
C1190       C  0.60361750  0.25604801  0.31127423    -0.28900
H1191       H  0.58825378  0.22145277  0.30080664     0.15300
H1192       H  0.58961402  0.25779019  0.33165063     0.15800
C1193       C  0.83552899  0.38305290  0.21554032    -0.13800
C1194       C  0.83228545  0.39563100  0.24486576    -0.28900
H1195       H  0.85253837  0.38549930  0.20011994     0.15300
H1196       H  0.81607013  0.39166749  0.26160975     0.15800
C1197       C  0.71859038  0.33217078  0.30212830    -0.13800
C1198       C  0.72969821  0.31210667  0.29194292    -0.28900
H1199       H  0.72807316  0.35008865  0.29801270     0.15300
H1200       H  0.72001320  0.29418525  0.29492971     0.15800
C1201       C  0.83816291  0.12891268  0.32857507    -0.13800
C1202       C  0.84754076  0.12816130  0.36032209    -0.28900
H1203       H  0.84413925  0.11607766  0.30917044     0.15300
H1204       H  0.84139563  0.14052935  0.38022935     0.15800
C1205       C  0.72326586  0.19108698  0.34570667    -0.13800
C1206       C  0.70042169  0.19204853  0.33482720    -0.28900
H1207       H  0.72496625  0.19284323  0.37334271     0.15300
H1208       H  0.68667157  0.19333744  0.35572334     0.15800
C1209       C  0.83560890  0.26663708  0.26752563    -0.13800
C1210       C  0.84053016  0.24518178  0.25315984    -0.28900
H1211       H  0.83309648  0.26765038  0.29539130     0.15300
H1212       H  0.84360308  0.24426207  0.22535753     0.15800
O1213       O  0.76737874  0.73452548  0.33641621    -0.55100
C1214       C  0.72866270  0.68298356  0.31971947     0.77500
O1215       O  0.79032042  0.71918565  0.25551207    -0.56300
C1216       C  0.78656908  0.74681826  0.32558138     0.77500
C1217       C  0.81447665  0.66102695  0.33133271     0.79800
Cd1218     Cd  0.77943091  0.69591065  0.30952694     1.37500
O1219       O  0.73884069  0.69884541  0.33904598    -0.55100
O1220       O  0.79998210  0.66987708  0.35364111    -0.54000
C1221       C  0.77396890  0.70844333  0.23823802     0.79800
O1222       O  0.81263413  0.66817632  0.30074466    -0.56300
O1223       O  0.74244873  0.67018036  0.30128815    -0.54800
O1224       O  0.80394084  0.73481952  0.31387704    -0.54800
O1225       O  0.76328497  0.68921980  0.25145544    -0.53900
O1226       O  0.72933753  0.85394648  0.24253011    -0.55100
C1227       C  0.76884873  0.80563711  0.29067368     0.77500
O1228       O  0.75682719  0.82000935  0.17496223    -0.56300
C1229       C  0.73306155  0.87087421  0.22024280     0.77500
C1230       C  0.81245836  0.86947731  0.24314959     0.79800
Cd1231     Cd  0.77062271  0.83755602  0.23109183     1.37500
O1232       O  0.75023370  0.81668296  0.28390927    -0.55100
O1233       O  0.79389343  0.86738421  0.26364844    -0.54000
C1234       C  0.76384315  0.79894431  0.18025894     0.79800
O1235       O  0.81151055  0.85746700  0.21528501    -0.56300
O1236       O  0.78798848  0.81116279  0.27221941    -0.54800
O1237       O  0.75370275  0.87232425  0.20428210    -0.54800
O1238       O  0.77896174  0.79782686  0.20330868    -0.53900
O1239       O  0.62154960  0.79189991  0.25860056    -0.55100
C1240       C  0.67621012  0.86657476  0.23647739     0.77500
O1241       O  0.68866900  0.81789887  0.27012176    -0.56300
C1242       C  0.61253420  0.80091707  0.23272221     0.77500
C1243       C  0.62095478  0.85063476  0.33174967     0.79800
Cd1244     Cd  0.64658100  0.82904613  0.27324597     1.37500
O1245       O  0.68260721  0.85791647  0.26448498    -0.55100
O1246       O  0.63273412  0.83197364  0.33645141    -0.54000
C1247       C  0.68285772  0.79586446  0.26256267     0.79800
O1248       O  0.62160686  0.85877794  0.30139106    -0.56300
O1249       O  0.65584317  0.85830695  0.22589807    -0.54800
O1250       O  0.61835606  0.82334395  0.22638439    -0.54800
O1251       O  0.66097434  0.78802542  0.26912098    -0.53900
O1252       O  0.66345465  0.72344888  0.27711307    -0.55100
C1253       C  0.61353296  0.74521064  0.21064908     0.77500
O1254       O  0.66879721  0.72983788  0.16831795    -0.56300
C1255       C  0.67375037  0.70399214  0.28282585     0.77500
C1256       C  0.61635013  0.66518441  0.22370014     0.79800
Cd1257     Cd  0.64801716  0.70851559  0.22008575     1.37500
O1258       O  0.62908439  0.74817201  0.23346841    -0.55100
O1259       O  0.61553082  0.68220859  0.24554257    -0.54000
C1260       C  0.68947643  0.72226491  0.17297504     0.79800
O1261       O  0.63182400  0.66828546  0.19847033    -0.56300
O1262       O  0.61399417  0.72563615  0.19342014    -0.54800
O1263       O  0.67048406  0.68689750  0.26140480    -0.54800
O1264       O  0.68941589  0.70404479  0.19278667    -0.53900
O1265       O  0.00200338  0.92180559  0.33915894    -0.55100
C1266       C  0.54643029  0.95689875  0.30781399     0.77500
O1267       O  0.51167011  0.93917199  0.41799255    -0.56300
C1268       C  0.98965197  0.90885854  0.36144596     0.77500
C1269       C  0.58532077  0.90030917  0.37176312     0.79800
Cd1270     Cd  0.54178518  0.92689602  0.36906572     1.37500
O1271       O  0.52633659  0.94627191  0.31835605    -0.55100
O1272       O  0.56459521  0.88985184  0.37964330    -0.54000
C1273       C  0.51815818  0.96177201  0.41540853     0.79800
O1274       O  0.58627719  0.92333925  0.36909486    -0.56300
O1275       O  0.56472996  0.95307695  0.32487045    -0.54800
O1276       O  0.51063300  0.89226715  0.37421037    -0.54800
O1277       O  0.53887797  0.96637348  0.40055614    -0.58300
O1278       O  0.56594167  0.54348385  0.24544666    -0.55100
C1279       C  0.49407181  0.56570759  0.25397451     0.77500
O1280       O  0.51119149  0.57830057  0.32631307    -0.56300
C1281       C  0.57444091  0.53483171  0.27226073     0.77500
C1282       C  0.57046452  0.61669709  0.26372386     0.79800
Cd1283     Cd  0.54133618  0.57249098  0.27854638     1.37500
O1284       O  0.50721702  0.54770248  0.25427901    -0.55100
O1285       O  0.56731740  0.60037652  0.24106910    -0.54000
C1286       C  0.52033889  0.56297110  0.34511514     0.79800
O1287       O  0.55982116  0.61272921  0.29299953    -0.56300
O1288       O  0.50479211  0.58680266  0.25610558    -0.54800
O1289       O  0.56678375  0.54286038  0.30095651    -0.54800
O1290       O  0.54133773  0.55671412  0.33607593    -0.53900
O1291       O  0.91907006  0.58984609  0.31694451    -0.55100
C1292       C  0.87729235  0.54277620  0.32759438     0.77500
O1293       O  0.92886028  0.57227112  0.41229185    -0.56300
C1294       C  0.93283953  0.60726580  0.32777370     0.77500
C1295       C  0.85675536  0.61597920  0.37240368     0.79800
Cd1296     Cd  0.89563001  0.58137744  0.37012042     1.37500
O1297       O  0.89639121  0.55592704  0.31878878    -0.55100
O1298       O  0.86785702  0.60871459  0.34565504    -0.54000
C1299       C  0.92298139  0.54942985  0.41426515     0.79800
O1300       O  0.86324420  0.60722281  0.40055323    -0.56300
O1301       O  0.86621371  0.54794324  0.35578077    -0.54800
O1302       O  0.92954070  0.61322774  0.35915345    -0.54800
O1303       O  0.90195587  0.54339091  0.40424235    -0.53900
O1304       O  0.92043931  0.96973004  0.27933095    -0.55100
C1305       C  0.93831440  0.90218010  0.31265856     0.77500
O1306       O  0.89632035  0.95898138  0.36853601    -0.56300
C1307       C  0.90349079  0.98295849  0.28949419     0.77500
C1308       C  0.85885729  0.90713314  0.29448762     0.79800
Cd1309     Cd  0.90144148  0.93474716  0.31385633     1.37500
O1310       O  0.93589879  0.91560119  0.28647675    -0.55100
O1311       O  0.87559936  0.91446392  0.27252090    -0.54000
C1312       C  0.91880751  0.95861878  0.37393381     0.79800
O1313       O  0.86188020  0.91249085  0.32585523    -0.56300
O1314       O  0.92112235  0.90074366  0.33579397    -0.54800
O1315       O  0.88425788  0.97210845  0.30282539    -0.54800
O1316       O  0.93099660  0.94465950  0.35532131    -0.53900
C1317       C  0.74742346  0.77660850  0.17232838     0.32700
C1318       C  0.71181712  0.73986272  0.16868964     0.32700
C1319       C  0.72717347  0.77593350  0.20054425    -0.03500
C1320       C  0.73346183  0.77604924  0.13893700    -0.04300
C1321       C  0.75633452  0.75044731  0.17479173    -0.04200
C1322       C  0.70943766  0.75748501  0.19892686    -0.03500
C1323       C  0.71506138  0.75707882  0.13685010    -0.04300
C1324       C  0.73769186  0.73119480  0.17289559    -0.04200
C1325       C  0.69226971  0.76119807  0.22516477    -0.29600
N1326       N  0.69920594  0.78172723  0.24252950     0.16900
C1327       C  0.72050256  0.79096576  0.22727225    -0.29600
H1328       H  0.72896657  0.80878150  0.23220021     0.18900
C1329       C  0.71188789  0.75334038  0.10188992    -0.28600
N1330       N  0.72689896  0.76976454  0.08297528     0.15700
C1331       C  0.74059232  0.78294230  0.10546972    -0.28500
C1332       C  0.74456132  0.71243920  0.19335692    -0.28800
N1333       N  0.76604890  0.71906649  0.20726828     0.16200
H1334       H  0.73272913  0.69689394  0.20230873     0.18800
C1335       C  0.77320059  0.74204609  0.19626629    -0.28800
H1336       H  0.78739521  0.75341439  0.20781388     0.18800
H1337       H  0.75602038  0.79548211  0.09795677     0.18800
H1338       H  0.67475004  0.75131458  0.22863136     0.18900
H1339       H  0.70093210  0.73831665  0.09121921     0.18800
C1340       C  0.73803137  0.78723337  0.89528384     0.32700
C1341       C  0.69844218  0.75275133  0.89489340     0.32700
C1342       C  0.74109847  0.76354902  0.87397339    -0.03500
C1343       C  0.72901982  0.77584145  0.93167809    -0.04300
C1344       C  0.71389061  0.79625649  0.88391789    -0.04200
C1345       C  0.72148549  0.74642732  0.87575864    -0.03500
C1346       C  0.70856498  0.75814101  0.93102749    -0.04300
C1347       C  0.69431280  0.77862263  0.88370951    -0.04200
C1348       C  0.72674829  0.72678458  0.85613331    -0.29600
N1349       N  0.74839479  0.73186876  0.83937458     0.16900
C1350       C  0.75774142  0.75402955  0.85029437    -0.29600
H1351       H  0.77427941  0.76324443  0.83916012     0.18900
C1352       C  0.70226666  0.75138196  0.96456810    -0.28600
N1353       N  0.71756199  0.76374648  0.98603141     0.15700
C1354       C  0.73386237  0.77869460  0.96633241    -0.28500
C1355       C  0.67335911  0.79030004  0.89020876    -0.28800
N1356       N  0.67899211  0.81432629  0.89428143     0.16200
H1357       H  0.65517225  0.78151153  0.89376658     0.18800
C1358       C  0.70348412  0.81827607  0.89115209    -0.28800
H1359       H  0.71301648  0.83584529  0.89548515     0.18800
H1360       H  0.74778455  0.79125621  0.97629758     0.18800
H1361       H  0.71417738  0.71130975  0.85076944     0.18900
H1362       H  0.68716806  0.73868365  0.97291490     0.18800
C1363       C  0.94191859  0.53009976  0.41857807     0.32700
C1364       C  0.98544236  0.99929920  0.44338965     0.32700
C1365       C  0.96544572  0.53720909  0.39698157    -0.03500
C1366       C  0.95240447  0.52301798  0.45343534    -0.04300
C1367       C  0.93422223  0.50459875  0.40397686    -0.04200
C1368       C  0.98330125  0.52044886  0.39535697    -0.03500
C1369       C  0.97011121  0.50536577  0.45121229    -0.04300
C1370       C  0.96230393  0.99214529  0.42435954    -0.04200
C1371       C  0.51197047  0.52820569  0.38343431    -0.29600
N1372       N  0.50631629  0.55024015  0.37219894     0.16900
C1373       C  0.97319069  0.55604547  0.37476272    -0.29600
H1374       H  0.96275843  0.57085405  0.36692171     0.18900
C1375       C  0.97763554  0.00212338  0.51446683    -0.28600
N1376       N  0.96188895  0.51319602  0.50665667     0.15700
C1377       C  0.94797572  0.52751378  0.48821803    -0.28500
C1378       C  0.95360137  0.97133725  0.40783509    -0.28800
N1379       N  0.93091324  0.97438224  0.39796084     0.16200
H1380       H  0.96318553  0.95515080  0.40234033     0.18800
C1381       C  0.91439392  0.49374598  0.38777516    -0.28800
H1382       H  0.89822670  0.50232318  0.38116972     0.18800
H1383       H  0.93459549  0.53913759  0.49931401     0.18800
H1384       H  0.52915787  0.52062412  0.37706264     0.18900
H1385       H  0.99037095  0.99009071  0.52429882     0.18800
C1386       C  0.95024681  0.00508734  0.72267594     0.32700
C1387       C  0.97291954  0.53722663  0.69627902     0.32700
C1388       C  0.97171433  0.99755342  0.74297435    -0.03500
C1389       C  0.95291465  0.50714313  0.65517683    -0.04300
C1390       C  0.93093859  0.51761739  0.70657393    -0.04200
C1391       C  0.98087134  0.51394279  0.71185669    -0.03500
C1392       C  0.96862224  0.52889623  0.65845556    -0.04300
C1393       C  0.94674055  0.53857432  0.70987677    -0.04200
C1394       C  0.50489639  0.99814138  0.74947673    -0.29600
N1395       N  0.49413588  0.97927820  0.76829458     0.16900
C1396       C  0.98112613  0.97494017  0.74344239    -0.29600
H1397       H  0.97120980  0.95798328  0.73687624     0.18900
C1398       C  0.97277488  0.53859884  0.62573456    -0.28600
N1399       N  0.96117189  0.52351093  0.60294704     0.15700
C1400       C  0.95720968  0.00676560  0.65227381    -0.28500
C1401       C  0.93334519  0.55852002  0.70656245    -0.28800
N1402       N  0.91016414  0.55095789  0.70136810     0.16200
H1403       H  0.94048849  0.57746338  0.70583163     0.18800
C1404       C  0.90834120  0.52631917  0.70103887    -0.28800
H1405       H  0.89191203  0.51567777  0.69480517     0.18800
H1406       H  0.94290218  0.99411239  0.64343340     0.18800
H1407       H  0.52847594  0.50585866  0.73733457     0.18900
H1408       H  0.98289052  0.55574619  0.61906185     0.18800
O1409       O  0.61460160  0.75231961  0.81598720    -0.55100
C1410       C  0.65526421  0.72393060  0.76373359     0.77500
O1411       O  0.66106023  0.72248578  0.89456919    -0.56300
C1412       C  0.60537065  0.75715197  0.84539930     0.77500
C1413       C  0.61030554  0.67092917  0.82250498     0.79800
Cd1414     Cd  0.63763842  0.71815066  0.83487496     1.37500
O1415       O  0.63862242  0.73606600  0.77746703    -0.55100
O1416       O  0.63098325  0.67638580  0.80803833    -0.54000
C1417       C  0.67740263  0.73674246  0.87956548     0.79800
O1418       O  0.60388569  0.68513840  0.84651346    -0.56300
O1419       O  0.66569581  0.71013506  0.78364798    -0.54800
O1420       O  0.60899816  0.74252837  0.86946007    -0.54800
O1421       O  0.67555261  0.73863694  0.84742677    -0.53900
O1422       O  0.72008200  0.70848458  0.69544737    -0.55100
C1423       C  0.77406521  0.75796154  0.72132199     0.77500
O1424       O  0.73803611  0.70581581  0.79421132    -0.56300
C1425       C  0.70326248  0.71328798  0.71742990     0.77500
C1426       C  0.77315256  0.66526785  0.72487912     0.79800
Cd1427     Cd  0.75257243  0.71075983  0.73598075     1.37500
O1428       O  0.75373484  0.75128215  0.70947507    -0.55100
O1429       O  0.77803121  0.68240138  0.70312165    -0.54000
C1430       C  0.75324374  0.72149294  0.80642393     0.79800
O1431       O  0.75774086  0.66886807  0.74903538    -0.56300
O1432       O  0.78674992  0.74129425  0.73161079    -0.54800
O1433       O  0.70902173  0.71552021  0.74831840    -0.54800
O1434       O  0.77083139  0.72971010  0.78671603    -0.53900
O1435       O  0.77095612  0.82144504  0.77904078    -0.55100
C1436       C  0.73839911  0.87320408  0.83007555     0.77500
O1437       O  0.75664340  0.83013432  0.89013492    -0.56300
C1438       C  0.78948837  0.80896034  0.78017081     0.77500
C1439       C  0.82079794  0.87869486  0.80586586     0.79800
Cd1440     Cd  0.77995377  0.84430508  0.83181408     1.37500
O1441       O  0.74167909  0.85661260  0.80781240    -0.55100
O1442       O  0.80360182  0.87002716  0.78837737    -0.54000
C1443       C  0.75874053  0.80747747  0.88530746     0.79800
O1444       O  0.81962014  0.87209623  0.83751234    -0.56300
O1445       O  0.75473983  0.87699047  0.85156566    -0.54800
O1446       O  0.80313058  0.81290318  0.80509692    -0.54800
O1447       O  0.77556684  0.80336520  0.86316069    -0.53900
O1448       O  0.65375535  0.87245403  0.81263413    -0.55100
C1449       C  0.60166269  0.82371817  0.84084342     0.77500
O1450       O  0.63930078  0.82587946  0.89104994    -0.56300
C1451       C  0.67178006  0.88215906  0.82803747     0.77500
C1452       C  0.59898561  0.89708659  0.90486248     0.79800
Cd1453     Cd  0.62945929  0.86449841  0.86765368     1.37500
O1454       O  0.61128064  0.84012516  0.82023826    -0.55100
O1455       O  0.61140384  0.88215202  0.91974694    -0.54000
C1456       C  0.66145161  0.83224191  0.89466437     0.79800
O1457       O  0.60171556  0.89807010  0.87233753    -0.56300
O1458       O  0.60124544  0.82876016  0.87262533    -0.54800
O1459       O  0.66774676  0.88861099  0.85898432    -0.54800
O1460       O  0.66757155  0.85490858  0.89425559    -0.53900
O1461       O  0.56788950  0.96387805  0.79018870    -0.55100
C1462       C  0.51075468  0.89031650  0.78385918     0.77500
O1463       O  0.52865274  0.97199849  0.79770381    -0.56300
C1464       C  0.57732673  0.95154280  0.76632885     0.77500
C1465       C  0.55461317  0.92559214  0.88067168     0.79800
Cd1466     Cd  0.53831048  0.93140198  0.81217070     1.37500
O1467       O  0.50074055  0.90538698  0.80358948    -0.55100
O1468       O  0.53918229  0.94062476  0.87403550    -0.54000
C1469       C  0.50689146  0.96549669  0.79142726     0.79800
O1470       O  0.56108775  0.91202471  0.85618647    -0.56300
O1471       O  0.53371310  0.89327815  0.77912257    -0.54800
O1472       O  0.56947793  0.92929462  0.76434163    -0.54800
O1473       O  0.49828879  0.94469686  0.80212717    -0.53900
O1474       O  0.50273593  0.60135264  0.78577528    -0.55100
C1475       C  0.55190225  0.55013174  0.79583491     0.77500
O1476       O  0.52294846  0.56434403  0.69128500    -0.56300
C1477       C  0.96483244  0.62584262  0.76239139     0.77500
C1478       C  0.57550486  0.62163955  0.76772797     0.79800
Cd1479     Cd  0.53610255  0.58572389  0.75086736     1.37500
O1480       O  0.53436102  0.56298047  0.80453498    -0.55100
O1481       O  0.55803179  0.61427251  0.78832705    -0.54000
C1482       C  0.50863894  0.54881073  0.70828551     0.79800
O1483       O  0.57524998  0.61262279  0.73732955    -0.56300
O1484       O  0.56261859  0.55428823  0.76645711    -0.54800
O1485       O  0.50929760  0.61719826  0.73489092    -0.54800
O1486       O  0.50921760  0.55071284  0.74069125    -0.53900
O1487       O  0.86030324  0.56746153  0.79359560    -0.55100
C1488       C  0.89836645  0.62190016  0.77310280     0.77500
O1489       O  0.86892396  0.55799871  0.70972272    -0.56300
C1490       C  0.84722789  0.55033489  0.78030775     0.77500
C1491       C  0.82385705  0.62356399  0.71839028     0.79800
Cd1492     Cd  0.85941942  0.59418555  0.74335352     1.37500
O1493       O  0.88203909  0.61075454  0.79266002    -0.55100
O1494       O  0.82364351  0.61701484  0.74968402    -0.54000
C1495       C  0.89067511  0.56655722  0.70430500     0.79800
O1496       O  0.84014782  0.61574165  0.69812404    -0.56300
O1497       O  0.89403756  0.62350835  0.74160323    -0.54800
O1498       O  0.83556809  0.55563779  0.75444859    -0.54800
O1499       O  0.89508685  0.58935712  0.70736055    -0.53900
O1500       O  0.92759874  0.92734614  0.67755458    -0.55100
C1501       C  0.87302531  0.99305805  0.65975523     0.77500
O1502       O  0.90766079  0.98919273  0.72752288    -0.56300
C1503       C  0.92958185  0.93375689  0.64611265     0.77500
C1504       C  0.86044321  0.91697877  0.73512536     0.79800
Cd1505     Cd  0.89327211  0.95273778  0.69345082     1.37500
O1506       O  0.86987347  0.98920980  0.69181008    -0.55100
O1507       O  0.87559171  0.93169688  0.74926676    -0.54000
C1508       C  0.92975610  0.98559868  0.72048489     0.79800
O1509       O  0.86067508  0.91842805  0.70252835    -0.56300
O1510       O  0.88177724  0.97608507  0.64201857    -0.54800
O1511       O  0.91230290  0.94513224  0.63520995    -0.54800
O1512       O  0.93400993  0.96505208  0.70791362    -0.53900
C1513       C  0.84880218  0.52456616  0.78969069    -0.13800
C1514       C  0.86889961  0.01730801  0.64540133    -0.28900
H1515       H  0.83521988  0.51146407  0.77969402     0.15300
H1516       H  0.85709569  0.02835099  0.66117110     0.15800
C1517       C  0.94083782  0.63592481  0.76158363    -0.13800
C1518       C  0.92277847  0.62912105  0.78499931    -0.28900
H1519       H  0.93634482  0.64311758  0.73685079     0.15300
H1520       H  0.92712884  0.62199388  0.80981905     0.15800
C1521       C  0.95262699  0.93181324  0.62507806    -0.13800
C1522       C  0.96924098  0.91652694  0.63399080    -0.28900
H1523       H  0.95822541  0.94708031  0.60795160     0.15300
H1524       H  0.50706626  0.85363091  0.76246189     0.15800
C1525       C  0.54442615  0.52210469  0.84524475    -0.13800
C1526       C  0.55837509  0.52979545  0.81731263    -0.28900
H1527       H  0.60968846  0.94893294  0.73234966     0.15300
H1528       H  0.57148339  0.51797741  0.80563384     0.15800
C1529       C  0.58279887  0.91241571  0.92571791    -0.13800
C1530       C  0.56398223  0.92454654  0.91548714    -0.28900
H1531       H  0.58620423  0.91342713  0.95297023     0.15300
H1532       H  0.55461780  0.93505667  0.93509235     0.15800
C1533       C  0.84075347  0.89575389  0.78939141    -0.13800
C1534       C  0.84274906  0.89924410  0.75460805    -0.28900
H1535       H  0.85347195  0.90562444  0.80568684     0.15300
H1536       H  0.83011390  0.88868354  0.73890775     0.15800
C1537       C  0.69701017  0.88179198  0.81313160    -0.13800
C1538       C  0.71579840  0.88614760  0.83360978    -0.28900
H1539       H  0.69975289  0.87210252  0.78902169     0.15300
H1540       H  0.71294746  0.89589133  0.85767495     0.15800
C1541       C  0.78588839  0.64283772  0.72500294    -0.13800
C1542       C  0.80674481  0.64059673  0.70669916    -0.28900
H1543       H  0.78029172  0.62969302  0.74534974     0.15300
H1544       H  0.81265083  0.65329360  0.68596749     0.15800
C1545       C  0.78002165  0.78383877  0.72937648    -0.13800
C1546       C  0.79430709  0.78923151  0.75562962    -0.28900
H1547       H  0.76740302  0.79690478  0.72171692     0.15300
H1548       H  0.80678632  0.77611282  0.76361034     0.15800
C1549       C  0.59383447  0.64989741  0.81135926    -0.13800
C1550       C  0.59479672  0.64011218  0.77915421    -0.28900
H1551       H  0.57876995  0.64400649  0.82924900     0.15300
H1552       H  0.60922712  0.64655188  0.76057888     0.15800
C1553       C  0.65956561  0.72450631  0.72574713    -0.13800
C1554       C  0.67883045  0.71759773  0.70623072    -0.28900
H1555       H  0.64435978  0.73011837  0.71174950     0.15300
H1556       H  0.67706041  0.71767208  0.67853111     0.15800
C1557       C  0.59354754  0.78008532  0.85244989    -0.13800
C1558       C  0.59534538  0.79850364  0.82921589    -0.28900
H1559       H  0.58950293  0.78405378  0.87945171     0.15300
H1560       H  0.59958807  0.79458439  0.80226543     0.15800
C1561       C  0.96047598  0.50943422  0.54350412    -0.13800
C1562       C  0.96082220  0.52798742  0.56628072    -0.28900
H1563       H  0.94042172  0.01415504  0.58347306     0.15300
H1564       H  0.96261357  0.54670995  0.55683429     0.15800
C1565       C  0.73035650  0.77206636  0.04561234    -0.13800
C1566       C  0.71486384  0.76116128  0.02342400    -0.28900
H1567       H  0.74577828  0.78367844  0.03528510     0.15300
H1568       H  0.69930775  0.74983885  0.03400282     0.15800
C1569       C  0.86922557  0.52123618  0.30771761    -0.13800
C1570       C  0.88282367  0.51298063  0.28098257    -0.28900
H1571       H  0.85436238  0.50953811  0.31959539     0.15300
H1572       H  0.89797542  0.52446998  0.26946909     0.15800
C1573       C  0.95723668  0.61003663  0.27333139    -0.13800
C1574       C  0.95314130  0.61832276  0.30566950    -0.28900
H1575       H  0.45922263  0.54345816  0.25662070     0.15300
H1576       H  0.96773835  0.62811446  0.31888089     0.15800
C1577       C  0.96876245  0.89246334  0.35169312    -0.13800
C1578       C  0.96194816  0.89272929  0.31891032    -0.28900
H1579       H  0.95515284  0.88791730  0.37235988     0.15300
H1580       H  0.97589420  0.89645409  0.29840999     0.15800
C1581       C  0.54759631  0.97452525  0.27913253    -0.13800
C1582       C  0.59398586  0.51792115  0.27048296    -0.28900
H1583       H  0.53028213  0.98042601  0.27143370     0.15300
H1584       H  0.60805017  0.52111325  0.25005454     0.15800
C1585       C  0.60021039  0.64276100  0.22811072    -0.13800
C1586       C  0.58584441  0.63925540  0.25694202    -0.28900
H1587       H  0.60071762  0.62877382  0.20832977     0.15300
H1588       H  0.58593094  0.65307002  0.27700890     0.15800
C1589       C  0.60676266  0.88670519  0.36135641    -0.13800
C1590       C  0.60597386  0.86212854  0.35908851    -0.28900
H1591       H  0.62197939  0.89734554  0.34843424     0.15300
H1592       H  0.59125938  0.85090222  0.37211336     0.15800
C1593       C  0.59522377  0.76282436  0.20329609    -0.13800
C1594       C  0.59514659  0.78674188  0.21165852    -0.28900
H1595       H  0.58107740  0.75593687  0.18665117     0.15300
H1596       H  0.58136614  0.79703823  0.20055616     0.15800
C1597       C  0.83426614  0.88472845  0.25194305    -0.13800
C1598       C  0.83679920  0.89296972  0.28425776    -0.28900
H1599       H  0.84880200  0.88824673  0.23224317     0.15300
H1600       H  0.82253867  0.88866187  0.30412990     0.15800
C1601       C  0.69072759  0.88641628  0.21779672    -0.13800
C1602       C  0.71512488  0.88866377  0.21216765    -0.28900
H1603       H  0.68046806  0.90016785  0.20622792     0.15300
H1604       H  0.72241704  0.90442062  0.19699708     0.15800
C1605       C  0.83288264  0.64327396  0.33875836    -0.13800
C1606       C  0.83744643  0.63378268  0.36982785    -0.28900
H1607       H  0.84359838  0.63768124  0.31624980     0.15300
H1608       H  0.82723647  0.63907477  0.39292701     0.15800
C1609       C  0.70237236  0.68139682  0.31439865    -0.13800
C1610       C  0.69087164  0.70205917  0.31064085    -0.28900
H1611       H  0.69518193  0.66472080  0.30229237     0.15300
H1612       H  0.69824031  0.71907172  0.32165738     0.15800
C1613       C  0.76779958  0.78536987  0.31599361    -0.13800
C1614       C  0.78790887  0.77366286  0.32163676    -0.28900
H1615       H  0.74993184  0.77678595  0.32348244     0.15300
H1616       H  0.80560726  0.78229708  0.31336561     0.15800
loop_ 
_geom_bond_atom_site_label_1 
_geom_bond_atom_site_label_2 
_geom_bond_distance 
_geom_bond_site_symmetry_2 
_ccdc_geom_bond_type 
O1            C4   1.269       .  A
O1           Cd6   2.473       .  S
C2           O11   1.263       .  A
C2            O7   1.271       .  A
C2          C397   1.473       .  S
O3            C9   1.268       .  A
O3           Cd6   2.461       .  S
C4           O12   1.265       .  A
C4          C402   1.475       .  S
C5           O10   1.269       .  A
C5            O8   1.266       .  A
C5          C393   1.507       .  S
Cd6          O13   2.484       .  S
Cd6          O12   2.446       .  S
Cd6          O11   2.479       .  S
Cd6           O7   2.471       .  S
Cd6          O10   2.535       .  S
Cd6           O8   2.574       .  S
C9           O13   1.264       .  A
C9          N121   1.439       .  S
O14          C17   1.261       .  A
O14         Cd19   2.466       .  S
C15          O24   1.269       .  A
C15          O20   1.266       .  A
C15         C401   1.477       .  S
O16          C22   1.260       .  A
O16         Cd19   2.460       .  S
C17          O25   1.268       .  A
C17         C390   1.479       .  S
C18          O23   1.264       .  A
C18          O21   1.260       .  A
C18         C385   1.472       .  S
Cd19         O26   2.543       .  S
Cd19         O25   2.507       .  S
Cd19         O24   2.477       .  S
Cd19         O20   2.453       .  S
Cd19         O23   2.499       .  S
Cd19         O21   2.432       .  S
C22          O26   1.266       .  A
C22         C105   1.524       .  S
O27          C30   1.275       .  A
O27         Cd32   2.454       .  S
C28          O37   1.268       .  A
C28          O33   1.277       .  A
C28         C389   1.475       .  S
O29          C35   1.280       .  A
O29         Cd32   2.485       .  S
C30          O38   1.265       .  A
C30         C382   1.476       .  S
C31          O36   1.275       .  A
C31          O34   1.270       .  A
C31         C378   1.503       .  S
Cd32         O39   2.397       .  S
Cd32         O38   2.488       .  S
Cd32         O37   2.415       .  S
Cd32         O33   2.462       .  S
Cd32         O36   2.514       .  S
Cd32         O34   2.541       .  S
C35          O39   1.263       .  A
C35         N114   1.428       .  S
O40          C43   1.264       .  A
O40         Cd45   2.469       .  S
C41          O50   1.267       .  A
C41          O46   1.260       .  A
C41         C381   1.494       .  S
O42          C48   1.261       .  A
O42         Cd45   2.458       .  S
C43          O51   1.268       .  A
C43         C398   1.485       .  S
C44          O49   1.268       .  A
C44          O47   1.262       .  A
C44         C373   1.478       .  S
Cd45         O52   2.567       .  S
Cd45         O51   2.553       .  S
Cd45         O50   2.626       .  S
Cd45         O46   2.450       .  S
Cd45         O49   2.507       .  S
Cd45         O47   2.437       .  S
C48          O52   1.265       .  A
C48         C106   1.534       .  S
O53          C56   1.266       .  A
O53        Cd866   2.474       .  S
C54          O63   1.271       .  A
C54          O59   1.261       .  A
C54         C369   1.474       .  S
O55          C61   1.269       .  A
O55         Cd58   2.604   1_655  S
C56         O872   1.267       .  A
C56         C365   1.471       .  S
C57          O62   1.273       .  A
C57          O60   1.259       .  A
C57         C377   1.506       .  S
Cd58         O65   2.537       .  S
Cd58         O64   2.499   1_455  S
Cd58         O63   2.498       .  S
Cd58         O59   2.435       .  S
Cd58         O62   2.588       .  S
Cd58         O60   2.502       .  S
Cd58        O861   2.407   1_455  S
C61          O65   1.267   1_655  A
C61         C960   1.560       .  S
O64         C864   1.269       .  A
O66          C69   1.265       .  A
O66         Cd71   2.475       .  S
C67          O76   1.260       .  A
C67          O72   1.265   1_655  A
C67        C1169   1.475       .  S
O68          C74   1.270       .  A
O68         Cd71   2.410       .  S
C69          O77   1.255       .  A
C69         C370   1.473       .  S
C70          O75   1.264       .  A
C70          O73   1.260       .  A
C70         C374   1.474       .  S
Cd71         O78   2.399       .  S
Cd71         O77   2.516       .  S
Cd71         O76   2.472   1_455  S
Cd71         O72   2.482       .  S
Cd71         O75   2.481       .  S
Cd71         O73   2.480       .  S
C74          O78   1.266       .  A
C74         N160   1.424       .  S
O79          C82   1.266       .  A
O79         Cd84   2.462       .  S
C80          O89   1.268       .  A
C80          O85   1.266       .  A
C80         C357   1.473   1_545  S
O81          C87   1.270       .  A
O81         Cd84   2.650       .  S
C82          O90   1.267       .  A
C82         C362   1.473       .  S
C83          O88   1.274       .  A
C83          O86   1.261       .  A
C83         C394   1.510       .  S
Cd84         O91   2.546       .  S
Cd84         O90   2.459       .  S
Cd84         O89   2.459       .  S
Cd84         O85   2.451       .  S
Cd84         O88   2.590       .  S
Cd84         O86   2.515       .  S
C87          O91   1.265       .  A
C87         C151   1.568       .  S
O92          C95   1.273       .  A
O92         Cd97   2.483       .  S
C93         O102   1.265       .  A
C93          O98   1.266       .  A
C93         C366   1.472       .  S
O94         C100   1.265       .  A
O94         Cd97   2.488       .  S
C95         O103   1.262       .  A
C95         C762   1.469       .  S
C96         O101   1.265       .  A
C96          O99   1.265       .  A
C96         C386   1.467       .  S
Cd97        O104   2.388       .  S
Cd97        O103   2.411       .  S
Cd97        O102   2.415       .  S
Cd97         O98   2.467       .  S
Cd97        O101   2.437       .  S
Cd97         O99   2.459       .  S
C100        O104   1.262       .  A
C100        N167   1.427       .  S
C105        C107   1.533       .  S
C105        C109   1.543       .  S
C105        C108   1.557       .  S
C106        C110   1.539       .  S
C106        C112   1.552       .  S
C106        C111   1.564       .  S
C107        C115   1.385       .  A
C107        C110   1.379       .  A
C108        C119   1.379       .  A
C108        C111   1.417       .  A
C109        C123   1.391       .  A
C109        C112   1.387       .  A
C110        C113   1.389       .  A
C111        C117   1.394       .  A
C112        C120   1.388       .  A
C113        N114   1.348       .  A
C113        H126   1.079       .  S
N114        C115   1.352       .  A
C115        H116   1.081       .  S
C117        N118   1.371       .  A
C117        H127   1.081       .  S
N118        C119   1.365       .  A
N118        C353   1.460       .  S
C119        H125   1.083       .  S
C120        N121   1.352       .  A
C120        H122   1.079       .  S
N121        C123   1.358       .  A
C123        H124   1.081       .  S
C128        C130   1.517       .  S
C128        C132   1.520       .  S
C128        C131   1.565       .  S
C128        C231   1.542       .  S
C129        C133   1.542       .  S
C129        C135   1.545       .  S
C129        C134   1.578       .  S
C129        C205   1.567       .  S
C130        C138   1.376       .  A
C130        C133   1.389       .  A
C131        C142   1.382       .  A
C131        C134   1.430       .  A
C132        C146   1.378       .  A
C132        C135   1.395       .  A
C133        C136   1.391       .  A
C134        C140   1.388       .  A
C135        C143   1.394       .  A
C136        N137   1.352       .  A
C136        H149   1.081       .  S
N137        C218   1.428       .  S
N137        C138   1.348       .  A
C138        H139   1.083       .  S
C140        N141   1.371   1_556  A
C140        H150   1.082       .  S
N141        C142   1.369   1_554  A
N141        C354   1.463       .  S
C142        H148   1.081       .  S
C143        N144   1.352       .  A
C143        H145   1.081       .  S
N144        C244   1.431       .  S
N144        C146   1.347       .  A
C146        H147   1.083       .  S
C151        C153   1.552       .  S
C151        C155   1.539   1_545  S
C151        C154   1.576       .  S
C152        C158   1.547       .  S
C152        C869   1.563       .  S
C152        C560   1.532       .  S
C152        C561   1.572       .  S
C153        C161   1.385       .  A
C153        C156   1.397       .  A
C154        C165   1.391       .  A
C154        C157   1.423   1_545  A
C155        C169   1.384       .  A
C155        C562   1.389       .  A
C156        C556   1.537   1_545  S
C156        C967   1.379       .  A
C157        C556   1.549       .  S
C157        C567   1.379       .  A
C158        C166   1.392       .  A
C158        C559   1.391       .  A
C159        C964   1.378   1_455  A
C159        N160   1.348       .  A
C159        H172   1.080       .  S
N160        C969   1.355   1_455  A
C161        N968   1.356       .  A
C161        H162   1.080       .  S
C163        C561   1.393       .  A
C163        N568   1.369       .  A
C163        H173   1.082       .  S
N164        C165   1.371   1_565  A
N164        C567   1.364       .  A
N164        C349   1.458       .  S
C165        H171   1.082       .  S
C166        N167   1.354       .  A
C166        H168   1.079       .  S
N167        C573   1.348       .  A
C169        N571   1.356       .  A
C169        H170   1.082       .  S
C174        C176   1.532       .  S
C174        C296   1.557       .  S
C174        C582   1.523       .  S
C174        C581   1.583       .  S
C175        C179   1.514       .  S
C175        C181   1.553       .  S
C175        C180   1.548   1_545  S
C175       C1078   1.530       .  S
C176        C184   1.376       .  A
C176        C583   1.383       .  A
C177        C578   1.552       .  S
C177        C180   1.420       .  A
C177        C592   1.396       .  A
C178        C578   1.551   1_545  S
C178        C192   1.377       .  A
C178        C181   1.432       .  A
C179        C580   1.361   1_545  A
C179       C1394   1.373   1_545  A
C180        C186   1.385   1_565  A
C181        C189   1.383       .  A
C182       C1391   1.376   1_455  A
C182        N183   1.353   1_455  A
C182        H599   1.083       .  S
N183        C257   1.421   1_655  S
N183        C992   1.350       .  A
C184        N991   1.354       .  A
C184        H185   1.083       .  S
C186        N187   1.355   1_545  A
C186        H196   1.083       .  S
N187        C592   1.360       .  A
N187        C350   1.451       .  S
C188        C581   1.394       .  A
C188        N591   1.372       .  A
C188        H194   1.082       .  S
C189        N190   1.353       .  A
C189        H191   1.081       .  S
N190        C283   1.432       .  S
N190        C192   1.351       .  A
C192        H193   1.081       .  S
H195        C586   1.082       .  S
O197        C200   1.270       .  A
O197       Cd202   2.464       .  S
C198        O207   1.268       .  A
C198        O203   1.269       .  A
C198        C341   1.476       .  S
O199        C205   1.268       .  A
O199       Cd202   2.549       .  S
C200        O208   1.267       .  A
C200        C345   1.471       .  S
C201        O206   1.277       .  A
C201        O204   1.261       .  A
C201        C337   1.500       .  S
Cd202       O209   2.592       .  S
Cd202       O208   2.428       .  S
Cd202       O207   2.451       .  S
Cd202       O203   2.466       .  S
Cd202       O206   2.572       .  S
Cd202       O204   2.440       .  S
C205        O209   1.266       .  A
O210        C213   1.270       .  A
O210       Cd215   2.451       .  S
C211        O220   1.266       .  A
C211        O216   1.269       .  A
C211        C333   1.472       .  S
O212        C218   1.264       .  A
O212       Cd215   2.455       .  S
C213        O221   1.267       .  A
C213        C342   1.471       .  S
C214        O219   1.266       .  A
C214        O217   1.264       .  A
C214        C329   1.463       .  S
Cd215       O222   2.428       .  S
Cd215       O221   2.430       .  S
Cd215       O220   2.402       .  S
Cd215       O216   2.469       .  S
Cd215       O219   2.463       .  S
Cd215       O217   2.421       .  S
C218        O222   1.264       .  A
O223        C226   1.275       .  A
O223       Cd228   2.423       .  S
C224        O233   1.274       .  A
C224        O229   1.275       .  A
C224        C326   1.470       .  S
O225        C231   1.281       .  A
O225       Cd228   2.651       .  S
C226        O234   1.274       .  A
C226        C334   1.471       .  S
C227        O232   1.283       .  A
C227        O230   1.271       .  A
C227        C321   1.494       .  S
Cd228       O235   2.367       .  S
Cd228       O234   2.414       .  S
Cd228       O233   2.415       .  S
Cd228       O229   2.408       .  S
Cd228       O232   2.493       .  S
Cd228       O230   2.451       .  S
C231        O235   1.272       .  A
O236        C239   1.269       .  A
O236       Cd241   2.451       .  S
C237        O246   1.268       .  A
C237        O242   1.269       .  A
C237        C346   1.472       .  S
O238        C244   1.265       .  A
O238       Cd241   2.439       .  S
C239        O247   1.268       .  A
C239        C325   1.470       .  S
C240        O245   1.267       .  A
C240        O243   1.265       .  A
C240        C317   1.475       .  S
Cd241       O248   2.460       .  S
Cd241       O247   2.417       .  S
Cd241       O246   2.408       .  S
Cd241       O242   2.460       .  S
Cd241       O245   2.489       .  S
Cd241       O243   2.422       .  S
C244        O248   1.265       .  A
O249        C252   1.264   1_655  A
O249       Cd254   2.467   1_655  S
C250        O259   1.263       .  A
C250        O255   1.270       .  A
C250       C1118   1.470       .  S
O251        C257   1.267       .  A
O251       Cd254   2.397       .  S
C252        O260   1.267       .  A
C252        C717   1.475       .  S
C253        O258   1.261       .  A
C253        O256   1.267       .  A
C253        C318   1.469       .  S
Cd254       O261   2.430       .  S
Cd254       O260   2.445       .  S
Cd254       O259   2.449   1_455  S
Cd254       O255   2.460   1_455  S
Cd254       O258   2.429       .  S
Cd254       O256   2.494       .  S
C257        O261   1.263       .  A
O262       C1073   1.269       .  A
O262       Cd267   2.479       .  S
C263        O272   1.264       .  A
C263        O268   1.271       .  A
C263        C314   1.483       .  S
O264        C270   1.260       .  A
O264       Cd267   2.430       .  S
C265       O1070   1.275       .  A
C265       O1081   1.262       .  A
C265        C305   1.470       .  S
C266        O271   1.267       .  A
C266        O269   1.265       .  A
C266        C338   1.494       .  S
Cd267       O274   2.488       .  S
Cd267       O273   2.473       .  S
Cd267       O272   2.462       .  S
Cd267       O268   2.491       .  S
Cd267       O271   2.499       .  S
Cd267       O269   2.558       .  S
C270        O274   1.266       .  A
C270        C983   1.511   1_455  S
O273       C1073   1.264       .  A
O275        C278   1.265       .  A
O275       Cd280   2.430       .  S
C276        O285   1.269       .  A
C276        O281   1.263       .  A
C276        C306   1.474       .  S
O277        C283   1.264       .  A
O277       Cd280   2.461       .  S
C278        O286   1.266       .  A
C278        C301   1.463   1_545  S
C279        O284   1.261       .  A
C279        O282   1.267       .  A
C279        C330   1.471       .  S
Cd280       O287   2.451       .  S
Cd280       O286   2.435       .  S
Cd280       O285   2.429       .  S
Cd280       O281   2.453       .  S
Cd280       O284   2.391       .  S
Cd280       O282   2.501       .  S
C283        O287   1.264       .  A
O288        C291   1.269       .  A
O288       Cd293   2.413       .  S
C289        O298   1.270       .  A
C289        O294   1.265       .  A
C289        C302   1.472       .  S
O290        C296   1.277       .  A
O290       Cd293   2.733       .  S
C291        O299   1.270       .  A
C291        C309   1.467       .  S
C292        O297   1.280       .  A
C292        O295   1.262       .  A
C292        C322   1.497       .  S
Cd293       O300   2.379       .  S
Cd293       O299   2.439       .  S
Cd293       O298   2.459       .  S
Cd293       O294   2.449       .  S
Cd293       O297   2.552       .  S
Cd293       O295   2.440       .  S
C296        O300   1.266       .  A
C301        H303   1.087       .  S
C301        C706   1.347       .  D
C302        H304   1.087       .  S
C302        C705   1.349       .  D
C305        H307   1.088       .  S
C305        C306   1.337       .  D
C306        H308   1.087       .  S
C309        H311   1.087       .  S
C309        C310   1.346       .  D
C310       C1058   1.468       .  S
C310       H1120   1.087       .  S
H312       C1118   1.086       .  S
C313        C656   1.483   1_545  S
C313        H719   1.087       .  S
C313        C314   1.341       .  D
C314        H316   1.087       .  S
H315        C717   1.087   1_655  S
C317        H319   1.086       .  S
C317        C318   1.343       .  D
C318        H320   1.087       .  S
C321        H323   1.086       .  S
C321        C322   1.362       .  D
C322        H324   1.086       .  S
C325        H327   1.087       .  S
C325        C326   1.344       .  D
C326        H328   1.087       .  S
C329        H331   1.087       .  S
C329        C330   1.344       .  D
C330        H332   1.086       .  S
C333        H335   1.087       .  S
C333        C334   1.345       .  D
C334        H336   1.087       .  S
C337        H339   1.086       .  S
C337        C338   1.359       .  D
C338        H340   1.086       .  S
C341        H343   1.087       .  S
C341        C342   1.345       .  D
C342        H344   1.087       .  S
C345        H347   1.087       .  S
C345        C346   1.343       .  D
C346        H348   1.087       .  S
C349        H755   1.086   1_565  S
C349        C350   1.356       .  D
C350        H352   1.085       .  S
H351        C753   1.085       .  S
C353        H355   1.084       .  S
C353        C354   1.360       .  D
C354        H356   1.085       .  S
C357        H359   1.087       .  S
C357        C358   1.348       .  D
C358        C499   1.474       .  S
C358        H360   1.086       .  S
C361        C875   1.473       .  S
C361       H1171   1.087       .  S
C361        C362   1.346       .  D
C362        H364   1.087       .  S
H363       C1169   1.086       .  S
C365        H367   1.087       .  S
C365        C366   1.348       .  D
C366        H368   1.087       .  S
C369        H371   1.087       .  S
C369        C774   1.339       .  D
C370        H372   1.087       .  S
C370        C773   1.350   1_545  D
C373        H375   1.086       .  S
C373        C374   1.349       .  D
C374        H376   1.087       .  S
C377        H379   1.086       .  S
C377        C378   1.362       .  D
C378        H380   1.086       .  S
C381        H383   1.087       .  S
C381        C382   1.355       .  D
C382        H384   1.087       .  S
C385        H387   1.087       .  S
C385        C386   1.344       .  D
C386        H388   1.087       .  S
C389        H391   1.087       .  S
C389        C390   1.341       .  D
C390        H392   1.087       .  S
C393        H395   1.086       .  S
C393        C394   1.363       .  D
C394        H396   1.086       .  S
C397        H399   1.087       .  S
C397        C398   1.350       .  D
C398        H400   1.087       .  S
C401        H403   1.087       .  S
C401        C402   1.344       .  D
C402        H404   1.087       .  S
O405        C408   1.271       .  A
O405       Cd410   2.481       .  S
C406        O415   1.268       .  A
C406        O411   1.274       .  A
C406        C801   1.477       .  S
O407        C413   1.266       .  A
O407       Cd410   2.523       .  S
C408        O416   1.265       .  A
C408        C806   1.475       .  S
C409        O414   1.272       .  A
C409        O412   1.268       .  A
C409        C797   1.507       .  S
Cd410       O417   2.507       .  S
Cd410       O416   2.429       .  S
Cd410       O415   2.434       .  S
Cd410       O411   2.461       .  S
Cd410       O414   2.529       .  S
Cd410       O412   2.564       .  S
C413        O417   1.265       .  A
C413        N525   1.449       .  S
O418        C421   1.265       .  A
O418       Cd423   2.553       .  S
C419        O428   1.265       .  A
C419        O424   1.268       .  A
C419        C805   1.482       .  S
O420        C426   1.267       .  A
O420       Cd423   2.544       .  S
C421        O429   1.263       .  A
C421        C794   1.485       .  S
C422        O427   1.268       .  A
C422        O425   1.263       .  A
C422        C789   1.467       .  S
Cd423       O430   2.436       .  S
Cd423       O429   2.465       .  S
Cd423       O428   2.467       .  S
Cd423       O424   2.494       .  S
Cd423       O427   2.478       .  S
Cd423       O425   2.384       .  S
C426        O430   1.258       .  A
C426        C509   1.517       .  S
O431        C434   1.278       .  A
O431       Cd436   2.454       .  S
C432        O441   1.269       .  A
C432        O437   1.275       .  A
C432        C793   1.471       .  S
O433        C439   1.281       .  A
O433       Cd436   2.511       .  S
C434        O442   1.271       .  A
C434        C786   1.477       .  S
C435        O440   1.276       .  A
C435        O438   1.272       .  A
C435        C782   1.505       .  S
Cd436       O443   2.420       .  S
Cd436       O442   2.378       .  S
Cd436       O441   2.436       .  S
Cd436       O437   2.467       .  S
Cd436       O440   2.508       .  S
Cd436       O438   2.534       .  S
C439        O443   1.268       .  A
C439        N518   1.436       .  S
O444        C447   1.263       .  A
O444       Cd449   2.450       .  S
C445        O454   1.268       .  A
C445        O450   1.264       .  A
C445        C785   1.476       .  S
O446        C452   1.260       .  A
O446       Cd449   2.414       .  S
C447        O455   1.268       .  A
C447        C802   1.477       .  S
C448        O453   1.265       .  A
C448        O451   1.259       .  A
C448        C777   1.470       .  S
Cd449       O456   2.532       .  S
Cd449       O455   2.498       .  S
Cd449       O454   2.478       .  S
Cd449       O450   2.469       .  S
Cd449       O453   2.529       .  S
Cd449       O451   2.331       .  S
C452        O456   1.266       .  A
C452        C510   1.515       .  S
O457        C460   1.265       .  A
O457      Cd1270   2.422       .  S
C458        O467   1.272       .  A
C458        O463   1.264       .  A
C458        C773   1.486       .  S
O459        C465   1.267   1_655  A
O459       Cd462   2.640   1_655  S
C460       O1276   1.269       .  A
C460        C769   1.470       .  S
C461        O466   1.269       .  A
C461        O464   1.260       .  A
C461        C781   1.506       .  S
Cd462      O1265   2.429       .  S
Cd462       O469   2.518       .  S
Cd462       O468   2.510   1_455  S
Cd462       O467   2.574       .  S
Cd462       O463   2.443       .  S
Cd462       O466   2.575       .  S
Cd462       O464   2.525       .  S
C465        O469   1.269       .  A
C465       C1364   1.566   1_455  S
O468       C1268   1.267       .  A
O470        C473   1.276       .  A
O470       Cd475   2.458       .  S
C471        O480   1.266       .  A
C471        O476   1.277       .  A
C471       C1573   1.468       .  S
O472        C478   1.270       .  A
O472       Cd475   2.460       .  S
C473        O481   1.263       .  A
C473        C774   1.469       .  S
C474        O479   1.266       .  A
C474        O477   1.274       .  A
C474        C778   1.451       .  S
Cd475       O482   2.378   1_455  S
Cd475       O481   2.393       .  S
Cd475       O480   2.366   1_455  S
Cd475       O476   2.455   1_455  S
Cd475       O479   2.318       .  S
Cd475       O477   2.457       .  S
C478        O482   1.262   1_455  A
C478        N564   1.416   1_455  S
O483        C486   1.268       .  A
O483       Cd488   2.477       .  S
C484        O493   1.265       .  A
C484        O489   1.266       .  A
C484        C761   1.482       .  S
O485        C491   1.269       .  A
O485       Cd488   2.621       .  S
C486        O494   1.268       .  A
C486        C766   1.473       .  S
C487        O492   1.273       .  A
C487        O490   1.262       .  A
C487        C798   1.508       .  S
Cd488       O495   2.567       .  S
Cd488       O494   2.447       .  S
Cd488       O493   2.468       .  S
Cd488       O489   2.492       .  S
Cd488       O492   2.571       .  S
Cd488       O490   2.518       .  S
C491        O495   1.265       .  A
C491        C555   1.569       .  S
O496        C499   1.277       .  A
O496       Cd501   2.448       .  S
C497        O506   1.270       .  A
C497        O502   1.276       .  A
C497        C770   1.469       .  S
O498        C504   1.277       .  A
O498       Cd501   2.458       .  S
C499        O507   1.270       .  A
C500        O505   1.272       .  A
C500        O503   1.272       .  A
C500        C790   1.462       .  S
Cd501       O508   2.377       .  S
Cd501       O507   2.377       .  S
Cd501       O506   2.381       .  S
Cd501       O502   2.438       .  S
Cd501       O505   2.402       .  S
Cd501       O503   2.414       .  S
C504        O508   1.267       .  A
C504        N571   1.422       .  S
C509        C511   1.535       .  S
C509        C513   1.550       .  S
C509        C512   1.557       .  S
C510        C514   1.545       .  S
C510        C516   1.556       .  S
C510        C515   1.559       .  S
C511        C519   1.385       .  A
C511        C514   1.375       .  A
C512        C523   1.384       .  A
C512        C515   1.410       .  A
C513        C527   1.395       .  A
C513        C516   1.385       .  A
C514        C517   1.397       .  A
C515        C521   1.391       .  A
C516        C524   1.394       .  A
C517        N518   1.360       .  A
C517        H530   1.080       .  S
N518        C519   1.347       .  A
C519        H520   1.079       .  S
C521        N522   1.371       .  A
C521        H531   1.081       .  S
N522        C523   1.367       .  A
N522        C757   1.464       .  S
C523        H529   1.082       .  S
C524        N525   1.359       .  A
C524        H526   1.080       .  S
N525        C527   1.359       .  A
C527        H528   1.081       .  S
C532        C534   1.532       .  S
C532        C536   1.551       .  S
C532        C535   1.568       .  S
C532        C635   1.557       .  S
C533        C537   1.518       .  S
C533        C539   1.545       .  S
C533        C538   1.567       .  S
C533        C609   1.554       .  S
C534        C542   1.384       .  A
C534        C537   1.382       .  A
C535        C546   1.391       .  A
C535        C538   1.425       .  A
C536        C550   1.382       .  A
C536        C539   1.398       .  A
C537        C540   1.366       .  A
C538        C544   1.385       .  A
C539        C547   1.387       .  A
C540        N541   1.341       .  A
C540        H553   1.081       .  S
N541        C622   1.411       .  S
N541        C542   1.348       .  A
C542        H543   1.079       .  S
C544        N545   1.368       .  A
C544        H554   1.082       .  S
N545        C546   1.371       .  A
N545        C758   1.465   1_556  S
C546        H552   1.081       .  S
C547        N548   1.357       .  A
C547        H549   1.081       .  S
N548        C648   1.435       .  S
N548        C550   1.354       .  A
C550        H551   1.079       .  S
C555        C557   1.544       .  S
C555        C559   1.533       .  S
C555        C558   1.569       .  S
C556       C1273   1.545       .  S
C556        C562   1.528       .  S
C557        C565   1.388       .  A
C557        C560   1.391       .  A
C558        C569   1.387       .  A
C558        C561   1.429       .  A
C559        C573   1.373       .  A
C560       C1371   1.373       .  A
C562        C570   1.376       .  A
C563       C1368   1.379   1_455  A
C563        N564   1.350   1_455  A
C563        H576   1.080       .  S
N564       C1373   1.351       .  A
C565       N1372   1.355       .  A
C565        H566   1.080       .  S
C567        H577   1.082       .  S
N568        C569   1.366       .  A
N568        C753   1.460       .  S
C569        H575   1.082       .  S
C570        N571   1.348       .  A
C570        H572   1.082       .  S
C573        H574   1.080       .  S
C578        C580   1.525       .  S
C578        C700   1.533       .  S
C579        C583   1.530       .  S
C579        C585   1.524       .  S
C579        C584   1.573       .  S
C579       C1482   1.552       .  S
C580        C588   1.379       .  A
C581        C584   1.438       .  A
C582        C596   1.378       .  A
C582        C585   1.387       .  A
C583        C990   1.379       .  A
C584        C590   1.383       .  A
C585        C593   1.379       .  A
C586        C987   1.376   1_455  A
C586        N587   1.351   1_545  A
N587        C661   1.426       .  S
N587       C1396   1.350   1_455  A
C588       N1395   1.352       .  A
C588        H589   1.079       .  S
C590        N591   1.367       .  A
C590        H600   1.082       .  S
N591        C754   1.463       .  S
C592        H598   1.082       .  S
C593        N594   1.350       .  A
C593        H595   1.083       .  S
N594        C687   1.422       .  S
N594        C596   1.347       .  A
C596        H597   1.083       .  S
O601        C604   1.271       .  A
O601       Cd606   2.476       .  S
C602        O611   1.267       .  A
C602        O607   1.267       .  A
C602        C745   1.490       .  S
O603        C609   1.262       .  A
O603       Cd606   2.525       .  S
C604        O612   1.265       .  A
C604        C749   1.466       .  S
C605        O610   1.274       .  A
C605        O608   1.259       .  A
C605        C741   1.487       .  S
Cd606       O613   2.628       .  S
Cd606       O612   2.404       .  S
Cd606       O611   2.474       .  S
Cd606       O607   2.505       .  S
Cd606       O610   2.535       .  S
Cd606       O608   2.449       .  S
C609        O613   1.272       .  A
O614        C617   1.276       .  A
O614       Cd619   2.495       .  S
C615        O624   1.265       .  A
C615        O620   1.266       .  A
C615        C737   1.475       .  S
O616        C622   1.267       .  A
O616       Cd619   2.447       .  S
C617        O625   1.259       .  A
C617        C746   1.469       .  S
C618        O623   1.263       .  A
C618        O621   1.271       .  A
C618        C733   1.462       .  S
Cd619       O626   2.326       .  S
Cd619       O625   2.374       .  S
Cd619       O624   2.411       .  S
Cd619       O620   2.464       .  S
Cd619       O623   2.399       .  S
Cd619       O621   2.445       .  S
C622        O626   1.261       .  A
O627        C630   1.266       .  A
O627       Cd632   2.488       .  S
C628        O637   1.268       .  A
C628        O633   1.266       .  A
C628        C730   1.471       .  S
O629        C635   1.263       .  A
O629       Cd632   2.532       .  S
C630        O638   1.267       .  A
C630        C738   1.473       .  S
C631        O636   1.275       .  A
C631        O634   1.257       .  A
C631        C725   1.487       .  S
Cd632       O639   2.595       .  S
Cd632       O638   2.440       .  S
Cd632       O637   2.486       .  S
Cd632       O633   2.401       .  S
Cd632       O636   2.550       .  S
Cd632       O634   2.426       .  S
C635        O639   1.269       .  A
O640        C643   1.269       .  A
O640       Cd645   2.439       .  S
C641        O650   1.267       .  A
C641        O646   1.266       .  A
C641        C750   1.470       .  S
O642        C648   1.264       .  A
O642       Cd645   2.483       .  S
C643        O651   1.267       .  A
C643        C729   1.466       .  S
C644        O649   1.267       .  A
C644        O647   1.264       .  A
C644        C721   1.465       .  S
Cd645       O652   2.450       .  S
Cd645       O651   2.417       .  S
Cd645       O650   2.398       .  S
Cd645       O646   2.461       .  S
Cd645       O649   2.448       .  S
Cd645       O647   2.440       .  S
C648        O652   1.265       .  A
O653        C656   1.261       .  A
O653       Cd658   2.444       .  S
C654        O663   1.269   1_655  A
C654        O659   1.265   1_655  A
C654       C1522   1.485       .  S
O655        C661   1.259       .  A
O655       Cd658   2.422       .  S
C656        O664   1.271       .  A
C657        O662   1.273       .  A
C657        O660   1.265       .  A
C657        C722   1.470       .  S
Cd658       O665   2.444       .  S
Cd658       O664   2.521       .  S
Cd658       O663   2.503       .  S
Cd658       O659   2.469       .  S
Cd658       O662   2.480       .  S
Cd658       O660   2.371       .  S
C661        O665   1.261       .  A
O666       C1477   1.267       .  A
O666       Cd671   2.467   1_655  S
C667        O676   1.268       .  A
C667        O672   1.271       .  A
C667        C718   1.474       .  S
O668        C674   1.264       .  A
O668       Cd671   2.355   1_655  S
C669       O1474   1.268       .  A
C669       O1485   1.269       .  A
C669        C709   1.472       .  S
C670        O675   1.276       .  A
C670        O673   1.264       .  A
C670        C742   1.487       .  S
Cd671       O678   2.676       .  S
Cd671       O677   2.452   1_455  S
Cd671       O676   2.424       .  S
Cd671       O672   2.477       .  S
Cd671       O675   2.518       .  S
Cd671       O673   2.443       .  S
C674        O678   1.274   1_655  A
C674       C1387   1.537       .  S
O677       C1477   1.266       .  A
O679        C682   1.269       .  A
O679       Cd684   2.477       .  S
C680        O689   1.266       .  A
C680        O685   1.272       .  A
C680        C710   1.472       .  S
O681        C687   1.262       .  A
O681       Cd684   2.437       .  S
C682        O690   1.265       .  A
C682        C705   1.473       .  S
C683        O688   1.263       .  A
C683        O686   1.270       .  A
C683        C734   1.464       .  S
Cd684       O691   2.432       .  S
Cd684       O690   2.404       .  S
Cd684       O689   2.397       .  S
Cd684       O685   2.466       .  S
Cd684       O688   2.422       .  S
Cd684       O686   2.429       .  S
C687        O691   1.261       .  A
O692        C695   1.269       .  A
O692       Cd697   2.524       .  S
C693        O702   1.264       .  A
C693        O698   1.270       .  A
C693        C706   1.472       .  S
O694        C700   1.266       .  A
O694       Cd697   2.575       .  S
C695        O703   1.267       .  A
C695        C713   1.487       .  S
C696        O701   1.274       .  A
C696        O699   1.261       .  A
C696        C726   1.484       .  S
Cd697       O704   2.532       .  S
Cd697       O703   2.444       .  S
Cd697       O702   2.407       .  S
Cd697       O698   2.491       .  S
Cd697       O701   2.512       .  S
Cd697       O699   2.455       .  S
C700        O704   1.263       .  A
C705        H707   1.087       .  S
C706        H708   1.087       .  S
C709        H711   1.087       .  S
C709        C710   1.347       .  D
C710        H712   1.087       .  S
C713        H715   1.087       .  S
C713        C714   1.352       .  D
C714       C1462   1.474       .  S
C714       H1524   1.087       .  S
H716       C1522   1.087       .  S
C717        C718   1.346       .  D
C718        H720   1.087       .  S
C721        H723   1.087       .  S
C721        C722   1.346       .  D
C722        H724   1.086       .  S
C725        H727   1.086       .  S
C725        C726   1.358       .  D
C726        H728   1.086       .  S
C729        H731   1.088       .  S
C729        C730   1.343       .  D
C730        H732   1.087       .  S
C733        H735   1.087       .  S
C733        C734   1.335       .  D
C734        H736   1.087       .  S
C737        H739   1.086       .  S
C737        C738   1.349       .  D
C738        H740   1.087       .  S
C741        H743   1.086       .  S
C741        C742   1.358       .  D
C742        H744   1.086       .  S
C745        H747   1.086       .  S
C745        C746   1.352       .  D
C746        H748   1.086       .  S
C749        H751   1.087       .  S
C749        C750   1.341       .  D
C750        H752   1.087       .  S
C753        C754   1.358       .  D
C754        H756   1.086       .  S
C757        H759   1.084       .  S
C757        C758   1.361       .  D
C758        H760   1.085       .  S
C761        H763   1.086       .  S
C761        C762   1.347       .  D
C762        H764   1.086       .  S
C765       C1279   1.474       .  S
C765       H1575   1.087       .  S
C765        C766   1.347       .  D
C766        H768   1.087       .  S
H767       C1573   1.087       .  S
C769        H771   1.087       .  S
C769        C770   1.346       .  D
C770        H772   1.087       .  S
C773        H775   1.087       .  S
C774        H776   1.087       .  S
C777        H779   1.086       .  S
C777        C778   1.341       .  D
C778        H780   1.087       .  S
C781        H783   1.086       .  S
C781        C782   1.361       .  D
C782        H784   1.086       .  S
C785        H787   1.087       .  S
C785        C786   1.350       .  D
C786        H788   1.087       .  S
C789        H791   1.086       .  S
C789        C790   1.343       .  D
C790        H792   1.087       .  S
C793        H795   1.086       .  S
C793        C794   1.349       .  D
C794        H796   1.087       .  S
C797        H799   1.086       .  S
C797        C798   1.362       .  D
C798        H800   1.086       .  S
C801        H803   1.087       .  S
C801        C802   1.343       .  D
C802        H804   1.087       .  S
C805        H807   1.087       .  S
C805        C806   1.348       .  D
C806        H808   1.087       .  S
O809        C812   1.277       .  A
O809       Cd814   2.422       .  S
C810        O819   1.268       .  A
C810        O815   1.275       .  A
C810       C1205   1.473       .  S
O811        C817   1.284       .  A
O811       Cd814   2.508       .  S
C812        O820   1.270       .  A
C812       C1210   1.473       .  S
C813        O818   1.278       .  A
C813        O816   1.270       .  A
C813       C1201   1.508       .  S
Cd814       O821   2.406       .  S
Cd814       O820   2.427       .  S
Cd814       O819   2.489       .  S
Cd814       O815   2.423       .  S
Cd814       O818   2.529       .  S
Cd814       O816   2.534       .  S
C817        O821   1.265       .  A
C817        N929   1.436       .  S
O822        C825   1.266       .  A
O822       Cd827   2.483       .  S
C823        O832   1.268       .  A
C823        O828   1.263       .  A
C823       C1209   1.474       .  S
O824        C830   1.265       .  A
O824       Cd827   2.503       .  S
C825        O833   1.266       .  A
C825       C1198   1.480       .  S
C826        O831   1.264       .  A
C826        O829   1.261       .  A
C826       C1193   1.463       .  S
Cd827       O834   2.433       .  S
Cd827       O833   2.480       .  S
Cd827       O832   2.490       .  S
Cd827       O828   2.443       .  S
Cd827       O831   2.471       .  S
Cd827       O829   2.397       .  S
C830        O834   1.261       .  A
C830        C913   1.511       .  S
O835        C838   1.270       .  A
O835       Cd840   2.473       .  S
C836        O845   1.265       .  A
C836        O841   1.268       .  A
C836       C1197   1.475       .  S
O837        C843   1.268       .  A
O837       Cd840   2.448       .  S
C838        O846   1.264       .  A
C838       C1190   1.469       .  S
C839        O844   1.270       .  A
C839        O842   1.266       .  A
C839       C1186   1.499       .  S
Cd840       O847   2.513       .  S
Cd840       O846   2.459       .  S
Cd840       O845   2.445       .  S
Cd840       O841   2.464       .  S
Cd840       O844   2.523       .  S
Cd840       O842   2.547       .  S
C843        O847   1.265       .  A
C843        N922   1.442       .  S
O848        C851   1.259       .  A
O848       Cd853   2.431       .  S
C849        O858   1.265       .  A
C849        O854   1.269       .  A
C849       C1189   1.485       .  S
O850        C856   1.265       .  A
O850       Cd853   2.585       .  S
C851        O859   1.269       .  A
C851       C1206   1.497       .  S
C852        O857   1.261       .  A
C852        O855   1.266       .  A
C852       C1181   1.462       .  S
Cd853       O860   2.381       .  S
Cd853       O859   2.657       .  S
Cd853       O858   2.441       .  S
Cd853       O854   2.552       .  S
Cd853       O857   2.441       .  S
Cd853       O855   2.427       .  S
C856        O860   1.259       .  A
C856        C914   1.523       .  S
O861        C864   1.262       .  A
C862        O871   1.267       .  A
C862        O867   1.263       .  A
C862       C1177   1.482       .  S
O863        C869   1.265       .  A
O863       Cd866   2.536       .  S
C864       C1173   1.474       .  S
C865        O870   1.273       .  A
C865        O868   1.262       .  A
C865       C1185   1.501       .  S
Cd866       O873   2.606       .  S
Cd866       O872   2.447       .  S
Cd866       O871   2.482       .  S
Cd866       O867   2.476       .  S
Cd866       O870   2.560       .  S
Cd866       O868   2.491       .  S
C869        O873   1.269       .  A
O874        C877   1.269       .  A
O874       Cd879   2.446       .  S
C875        O884   1.267       .  A
C875        O880   1.270       .  A
O876        C882   1.263       .  A
O876       Cd879   2.465       .  S
C877        O885   1.263       .  A
C877       C1178   1.467   1_545  S
C878        O883   1.263       .  A
C878        O881   1.267       .  A
C878       C1182   1.460       .  S
Cd879       O886   2.449       .  S
Cd879       O885   2.423       .  S
Cd879       O884   2.408       .  S
Cd879       O880   2.463       .  S
Cd879       O883   2.412       .  S
Cd879       O881   2.453       .  S
C882        O886   1.262       .  A
C882        N968   1.430       .  S
O887        C890   1.266       .  A
O887       Cd892   2.467       .  S
C888        O897   1.267       .  A
C888        O893   1.268       .  A
C888       C1165   1.468       .  S
O889        C895   1.266       .  A
O889       Cd892   2.565       .  S
C890        O898   1.268       .  A
C890       C1170   1.476       .  S
C891        O896   1.277       .  A
C891        O894   1.260       .  A
C891       C1202   1.510       .  S
Cd892       O899   2.603       .  S
Cd892       O898   2.460       .  S
Cd892       O897   2.414       .  S
Cd892       O893   2.477       .  S
Cd892       O896   2.596       .  S
Cd892       O894   2.503       .  S
C895        O899   1.268       .  A
C895        C959   1.567       .  S
O900        C903   1.275       .  A
O900       Cd905   2.449       .  S
C901        O910   1.271       .  A
C901        O906   1.275       .  A
C901       C1174   1.469       .  S
O902        C908   1.277       .  A
O902       Cd905   2.489       .  S
C903        O911   1.267       .  A
C903       C1570   1.469       .  S
C904        O909   1.272       .  A
C904        O907   1.270       .  A
C904       C1194   1.459       .  S
Cd905       O912   2.350       .  S
Cd905       O911   2.352       .  S
Cd905       O910   2.413       .  S
Cd905       O906   2.423       .  S
Cd905       O909   2.404       .  S
Cd905       O907   2.407       .  S
C908        O912   1.265       .  A
C908        N975   1.423       .  S
C913        C915   1.545       .  S
C913        C917   1.536       .  S
C913        C916   1.558       .  S
C914        C918   1.552       .  S
C914        C920   1.540       .  S
C914        C919   1.565       .  S
C915        C923   1.398       .  A
C915        C918   1.380       .  A
C916        C927   1.378       .  A
C916        C919   1.415       .  A
C917        C931   1.388       .  A
C917        C920   1.373       .  A
C918        C921   1.386       .  A
C919        C925   1.396       .  A
C920        C928   1.393       .  A
C921        N922   1.350       .  A
C921        H934   1.080       .  S
N922        C923   1.361       .  A
C923        H924   1.081       .  S
C925        N926   1.373       .  A
C925        H935   1.082       .  S
N926        C927   1.364       .  A
N926       C1161   1.462       .  S
C927        H933   1.082       .  S
C928        N929   1.349       .  A
C928        H930   1.079       .  S
N929        C931   1.356       .  A
C931        H932   1.079       .  S
C936        C938   1.548       .  S
C936        C940   1.539       .  S
C936        C939   1.567       .  S
C936       C1039   1.558       .  S
C937        C941   1.536       .  S
C937        C943   1.531       .  S
C937        C942   1.565       .  S
C937       C1013   1.551       .  S
C938        C946   1.389       .  A
C938        C941   1.388       .  A
C939        C950   1.388       .  A
C939        C942   1.423       .  A
C940        C954   1.392       .  A
C940        C943   1.402       .  A
C941        C944   1.383       .  A
C942        C948   1.386       .  A
C943        C951   1.381       .  A
C944        N945   1.350       .  A
C944        H957   1.080       .  S
N945       C1026   1.432       .  S
N945        C946   1.354       .  A
C946        H947   1.079       .  S
C948        N949   1.368       .  A
C948        H958   1.082       .  S
N949        C950   1.371       .  A
N949       C1162   1.464   1_556  S
C950        H956   1.081       .  S
C951        N952   1.343       .  A
C951        H953   1.080       .  S
N952       C1052   1.427       .  S
N952        C954   1.347       .  A
C954        H955   1.080       .  S
C959        C961   1.543       .  S
C959        C963   1.541       .  S
C959        C962   1.574       .  S
C960       C1368   1.537       .  S
C960        C966   1.534       .  S
C960       C1369   1.552       .  S
C961        C969   1.381       .  A
C961        C964   1.389       .  A
C962        C973   1.388       .  A
C962        C965   1.432       .  A
C963        C977   1.393   1_545  A
C963       C1370   1.387   1_545  A
C964       C1364   1.530   1_545  S
C965       C1364   1.577   1_545  S
C965       C1375   1.396       .  A
C966       C1367   1.395       .  A
C966        C974   1.373       .  A
C967        N968   1.352       .  A
C967        H980   1.080       .  S
C969        H970   1.080       .  S
C971       C1369   1.375       .  A
C971       N1376   1.360       .  A
C971        H981   1.082       .  S
N972       C1375   1.371       .  A
N972        C973   1.368       .  A
N972       C1157   1.465       .  S
C973        H979   1.082       .  S
C974        N975   1.351       .  A
C974        H976   1.082       .  S
N975       C1381   1.357       .  A
C977       N1379   1.355       .  A
C977        H978   1.080   1_565  S
C982        C984   1.536       .  S
C982       C1390   1.542       .  S
C982       C1389   1.563       .  S
C982       C1104   1.559       .  S
C983        C987   1.535       .  S
C983        C989   1.541       .  S
C983        C988   1.551       .  S
C984        C992   1.378       .  A
C984       C1391   1.378       .  A
C985       C1386   1.546       .  S
C985       C1400   1.398       .  A
C985        C988   1.376       .  A
C986       C1386   1.540       .  S
C986       C1000   1.380       .  A
C986        C989   1.414       .  A
C987       C1388   1.407   1_545  A
C988        C994   1.394       .  A
C989        C997   1.375       .  A
C990        N991   1.356       .  A
C990       H1407   1.083       .  S
N991       C1065   1.427       .  S
C992        H993   1.079       .  S
C994        N995   1.367       .  A
C994       H1004   1.082   1_655  S
N995       C1400   1.366       .  A
N995       C1158   1.466       .  S
C996       C1389   1.378       .  A
C996       N1399   1.365       .  A
C996       H1002   1.082       .  S
C997        N998   1.349       .  A
C997        H999   1.081       .  S
N998       C1091   1.426       .  S
N998       C1000   1.352       .  A
C1000      H1001   1.082       .  S
H1003      C1394   1.078   1_545  S
O1005      C1008   1.266       .  A
O1005     Cd1010   2.450       .  S
C1006      O1015   1.266       .  A
C1006      O1011   1.268       .  A
C1006      C1149   1.473       .  S
O1007      C1013   1.263       .  A
O1007     Cd1010   2.475       .  S
C1008      O1016   1.267       .  A
C1008      C1153   1.476       .  S
C1009      O1014   1.273       .  A
C1009      O1012   1.259       .  A
C1009      C1145   1.485       .  S
Cd1010     O1017   2.616       .  S
Cd1010     O1016   2.483       .  S
Cd1010     O1015   2.440       .  S
Cd1010     O1011   2.476       .  S
Cd1010     O1014   2.534       .  S
Cd1010     O1012   2.439       .  S
C1013      O1017   1.267       .  A
O1018      C1021   1.266       .  A
O1018     Cd1023   2.434       .  S
C1019      O1028   1.266       .  A
C1019      O1024   1.268       .  A
C1019      C1141   1.465       .  S
O1020      C1026   1.263       .  A
O1020     Cd1023   2.464       .  S
C1021      O1029   1.266       .  A
C1021      C1150   1.469       .  S
C1022      O1027   1.263       .  A
C1022      O1025   1.269       .  A
C1022      C1137   1.461       .  S
Cd1023     O1030   2.467       .  S
Cd1023     O1029   2.442       .  S
Cd1023     O1028   2.384       .  S
Cd1023     O1024   2.447       .  S
Cd1023     O1027   2.386       .  S
Cd1023     O1025   2.482       .  S
C1026      O1030   1.262       .  A
O1031      C1034   1.270       .  A
O1031     Cd1036   2.434       .  S
C1032      O1041   1.267       .  A
C1032      O1037   1.268       .  A
C1032      C1134   1.468       .  S
O1033      C1039   1.264       .  A
O1033     Cd1036   2.527       .  S
C1034      O1042   1.267       .  A
C1034      C1142   1.466       .  S
C1035      O1040   1.276       .  A
C1035      O1038   1.259       .  A
C1035      C1129   1.487       .  S
Cd1036     O1043   2.581       .  S
Cd1036     O1042   2.425       .  S
Cd1036     O1041   2.427       .  S
Cd1036     O1037   2.458       .  S
Cd1036     O1040   2.534       .  S
Cd1036     O1038   2.434       .  S
C1039      O1043   1.266       .  A
O1044      C1047   1.268       .  A
O1044     Cd1049   2.473       .  S
C1045      O1054   1.270       .  A
C1045      O1050   1.271       .  A
C1045      C1154   1.470       .  S
O1046      C1052   1.262       .  A
O1046     Cd1049   2.403       .  S
C1047      O1055   1.265       .  A
C1047      C1133   1.471       .  S
C1048      O1053   1.269       .  A
C1048      O1051   1.265       .  A
C1048      C1125   1.469       .  S
Cd1049     O1056   2.459       .  S
Cd1049     O1055   2.392       .  S
Cd1049     O1054   2.411       .  S
Cd1049     O1050   2.433       .  S
Cd1049     O1053   2.495       .  S
Cd1049     O1051   2.340       .  S
C1052      O1056   1.265       .  A
O1057      C1060   1.269       .  A
O1057     Cd1062   2.468       .  S
C1058      O1067   1.267       .  A
C1058      O1063   1.272       .  A
O1059      C1065   1.262       .  A
O1059     Cd1062   2.475       .  S
C1060      O1068   1.264       .  A
C1060      C1525   1.470       .  S
C1061      O1066   1.261       .  A
C1061      O1064   1.269       .  A
C1061      C1126   1.454       .  S
Cd1062     O1069   2.446       .  S
Cd1062     O1068   2.394       .  S
Cd1062     O1067   2.384       .  S
Cd1062     O1063   2.460       .  S
Cd1062     O1066   2.354       .  S
Cd1062     O1064   2.478       .  S
C1065      O1069   1.259       .  A
O1070     Cd1075   2.517       .  S
C1071      O1080   1.268       .  A
C1071      O1076   1.273       .  A
C1071      C1122   1.487   1_545  S
O1072      C1078   1.265       .  A
O1072     Cd1075   2.540       .  S
C1073      C1113   1.480   1_455  S
C1074      O1079   1.276       .  A
C1074      O1077   1.264       .  A
C1074      C1146   1.483       .  S
Cd1075     O1082   2.541       .  S
Cd1075     O1081   2.385       .  S
Cd1075     O1080   2.423       .  S
Cd1075     O1076   2.508       .  S
Cd1075     O1079   2.500       .  S
Cd1075     O1077   2.441       .  S
C1078      O1082   1.263       .  A
O1083      C1086   1.263       .  A
O1083     Cd1088   2.426       .  S
C1084      O1093   1.273       .  A
C1084      O1089   1.264       .  A
C1084      C1114   1.479       .  S
O1085      C1091   1.260       .  A
O1085     Cd1088   2.430       .  S
C1086      O1094   1.272       .  A
C1086      C1109   1.486       .  S
C1087      O1092   1.271       .  A
C1087      O1090   1.264       .  A
C1087      C1138   1.473       .  S
Cd1088     O1095   2.451       .  S
Cd1088     O1094   2.517       .  S
Cd1088     O1093   2.505       .  S
Cd1088     O1089   2.436       .  S
Cd1088     O1092   2.498       .  S
Cd1088     O1090   2.356       .  S
C1091      O1095   1.260       .  A
O1096      C1099   1.269       .  A
O1096     Cd1101   2.515       .  S
C1097      O1106   1.266       .  A
C1097      O1102   1.268       .  A
C1097      C1110   1.475       .  S
O1098      C1104   1.266       .  A
O1098     Cd1101   2.575       .  S
C1099      O1107   1.265       .  A
C1099      C1117   1.482       .  S
C1100      O1105   1.275       .  A
C1100      O1103   1.261       .  A
C1100      C1130   1.486       .  S
Cd1101     O1108   2.514       .  S
Cd1101     O1107   2.450       .  S
Cd1101     O1106   2.440       .  S
Cd1101     O1102   2.476       .  S
Cd1101     O1105   2.526       .  S
Cd1101     O1103   2.443       .  S
C1104      O1108   1.266       .  A
C1109      H1111   1.086       .  S
C1109      C1514   1.353       .  D
C1110      H1112   1.087       .  S
C1110      C1513   1.346       .  D
C1113      H1115   1.087       .  S
C1113      C1114   1.340       .  D
C1114      H1116   1.087       .  S
C1117      H1119   1.086       .  S
C1117      C1118   1.346       .  D
C1121      C1464   1.472       .  S
C1121      H1527   1.087       .  S
C1121      C1122   1.351       .  D
C1122      H1124   1.087       .  S
H1123      C1525   1.086       .  S
C1125      H1127   1.086       .  S
C1125      C1126   1.339       .  D
C1126      H1128   1.088       .  S
C1129      H1131   1.086       .  S
C1129      C1130   1.359       .  D
C1130      H1132   1.086       .  S
C1133      H1135   1.087       .  S
C1133      C1134   1.344       .  D
C1134      H1136   1.087       .  S
C1137      H1139   1.087       .  S
C1137      C1138   1.343       .  D
C1138      H1140   1.086       .  S
C1141      H1143   1.087       .  S
C1141      C1142   1.343       .  D
C1142      H1144   1.087       .  S
C1145      H1147   1.086       .  S
C1145      C1146   1.356       .  D
C1146      H1148   1.086       .  S
C1149      H1151   1.087       .  S
C1149      C1150   1.345       .  D
C1150      H1152   1.087       .  S
C1153      H1155   1.087       .  S
C1153      C1154   1.346       .  D
C1154      H1156   1.087       .  S
C1157      H1563   1.085       .  S
C1157      C1158   1.361       .  D
C1158      H1160   1.086       .  S
H1159      C1561   1.086       .  S
C1161      H1163   1.083       .  S
C1161      C1162   1.358       .  D
C1162      H1164   1.084       .  S
C1165      H1167   1.087       .  S
C1165      C1166   1.346       .  D
C1166      C1307   1.474   1_545  S
C1166      H1168   1.086       .  S
C1169      C1170   1.347       .  D
C1170      H1172   1.086       .  S
C1173      H1175   1.087       .  S
C1173      C1174   1.348       .  D
C1174      H1176   1.087       .  S
C1177      H1179   1.086       .  S
C1177      C1582   1.349       .  D
C1178      H1180   1.087       .  S
C1178      C1581   1.341       .  D
C1181      H1183   1.087       .  S
C1181      C1182   1.338       .  D
C1182      H1184   1.088       .  S
C1185      H1187   1.086       .  S
C1185      C1186   1.359       .  D
C1186      H1188   1.086       .  S
C1189      H1191   1.087       .  S
C1189      C1190   1.348       .  D
C1190      H1192   1.086       .  S
C1193      H1195   1.087       .  S
C1193      C1194   1.343       .  D
C1194      H1196   1.087       .  S
C1197      H1199   1.087       .  S
C1197      C1198   1.347       .  D
C1198      H1200   1.087       .  S
C1201      H1203   1.086       .  S
C1201      C1202   1.366       .  D
C1202      H1204   1.086       .  S
C1205      H1207   1.087       .  S
C1205      C1206   1.355       .  D
C1206      H1208   1.088       .  S
C1209      H1211   1.087       .  S
C1209      C1210   1.341       .  D
C1210      H1212   1.087       .  S
O1213      C1216   1.266       .  A
O1213     Cd1218   2.478       .  S
C1214      O1223   1.266       .  A
C1214      O1219   1.269       .  A
C1214      C1609   1.473       .  S
O1215      C1221   1.264       .  A
O1215     Cd1218   2.482       .  S
C1216      O1224   1.266       .  A
C1216      C1614   1.476       .  S
C1217      O1222   1.264       .  A
C1217      O1220   1.269       .  A
C1217      C1605   1.496       .  S
Cd1218     O1225   2.489       .  S
Cd1218     O1224   2.452       .  S
Cd1218     O1223   2.431       .  S
Cd1218     O1219   2.478       .  S
Cd1218     O1222   2.474       .  S
Cd1218     O1220   2.590       .  S
C1221      O1225   1.265       .  A
C1221      N1333   1.440       .  S
O1226      C1229   1.269       .  A
O1226     Cd1231   2.527       .  S
C1227      O1236   1.263       .  A
C1227      O1232   1.269       .  A
C1227      C1613   1.481       .  S
O1228      C1234   1.265       .  A
O1228     Cd1231   2.517       .  S
C1229      O1237   1.265       .  A
C1229      C1602   1.484       .  S
C1230      O1235   1.269       .  A
C1230      O1233   1.263       .  A
C1230      C1597   1.470       .  S
Cd1231     O1238   2.492       .  S
Cd1231     O1237   2.440       .  S
Cd1231     O1236   2.436       .  S
Cd1231     O1232   2.523       .  S
Cd1231     O1235   2.481       .  S
Cd1231     O1233   2.406       .  S
C1234      O1238   1.261       .  A
C1234      C1317   1.511       .  S
O1239      C1242   1.263       .  A
O1239     Cd1244   2.460       .  S
C1240      O1249   1.270       .  A
C1240      O1245   1.266       .  A
C1240      C1601   1.472       .  S
O1241      C1247   1.265       .  A
O1241     Cd1244   2.441       .  S
C1242      O1250   1.269       .  A
C1242      C1594   1.473       .  S
C1243      O1248   1.260       .  A
C1243      O1246   1.269       .  A
C1243      C1590   1.481       .  S
Cd1244     O1251   2.441       .  S
Cd1244     O1250   2.465       .  S
Cd1244     O1249   2.452       .  S
Cd1244     O1245   2.459       .  S
Cd1244     O1248   2.432       .  S
Cd1244     O1246   2.544       .  S
C1247      O1251   1.265       .  A
C1247      N1326   1.431       .  S
O1252      C1255   1.269       .  A
O1252     Cd1257   2.532       .  S
C1253      O1262   1.266       .  A
C1253      O1258   1.269       .  A
C1253      C1593   1.486       .  S
O1254      C1260   1.264       .  A
O1254     Cd1257   2.510       .  S
C1255      O1263   1.263       .  A
C1255      C1610   1.482       .  S
C1256      O1261   1.269       .  A
C1256      O1259   1.263       .  A
C1256      C1585   1.469       .  S
Cd1257     O1264   2.496       .  S
Cd1257     O1263   2.439       .  S
Cd1257     O1262   2.438       .  S
Cd1257     O1258   2.521       .  S
Cd1257     O1261   2.482       .  S
Cd1257     O1259   2.390       .  S
C1260      O1264   1.262       .  A
C1260      C1318   1.511       .  S
O1265      C1268   1.260   1_455  A
C1266      O1275   1.267       .  A
C1266      O1271   1.263       .  A
C1266      C1581   1.472       .  S
O1267      C1273   1.267       .  A
O1267     Cd1270   2.581       .  S
C1268      C1577   1.475       .  S
C1269      O1274   1.264       .  A
C1269      O1272   1.264       .  A
C1269      C1589   1.482       .  S
Cd1270     O1277   2.497       .  S
Cd1270     O1276   2.468       .  S
Cd1270     O1275   2.475       .  S
Cd1270     O1271   2.461       .  S
Cd1270     O1274   2.477       .  S
Cd1270     O1272   2.511       .  S
C1273      O1277   1.262       .  A
O1278      C1281   1.272       .  A
O1278     Cd1283   2.481       .  S
C1279      O1288   1.265       .  A
C1279      O1284   1.267       .  A
O1280      C1286   1.264       .  A
O1280     Cd1283   2.463       .  S
C1281      O1289   1.262       .  A
C1281      C1582   1.471       .  S
C1282      O1287   1.265       .  A
C1282      O1285   1.265       .  A
C1282      C1586   1.464       .  S
Cd1283     O1290   2.399       .  S
Cd1283     O1289   2.415       .  S
Cd1283     O1288   2.421       .  S
Cd1283     O1284   2.469       .  S
Cd1283     O1287   2.440       .  S
Cd1283     O1285   2.445       .  S
C1286      O1290   1.264       .  A
C1286      N1372   1.425       .  S
O1291      C1294   1.263       .  A
O1291     Cd1296   2.408       .  S
C1292      O1301   1.269       .  A
C1292      O1297   1.265       .  A
C1292      C1569   1.466       .  S
O1293      C1299   1.272       .  A
O1293     Cd1296   2.599       .  S
C1294      O1302   1.270       .  A
C1294      C1574   1.470       .  S
C1295      O1300   1.274       .  A
C1295      O1298   1.258       .  A
C1295      C1606   1.503       .  S
Cd1296     O1303   2.525       .  S
Cd1296     O1302   2.485       .  S
Cd1296     O1301   2.443       .  S
Cd1296     O1297   2.435       .  S
Cd1296     O1300   2.596       .  S
Cd1296     O1298   2.447       .  S
C1299      O1303   1.265       .  A
C1299      C1363   1.556       .  S
O1304      C1307   1.271       .  A
O1304     Cd1309   2.478       .  S
C1305      O1314   1.271       .  A
C1305      O1310   1.275       .  A
C1305      C1578   1.470       .  S
O1306      C1312   1.271       .  A
O1306     Cd1309   2.520       .  S
C1307      O1315   1.265       .  A
C1308      O1313   1.271       .  A
C1308      O1311   1.268       .  A
C1308      C1598   1.468       .  S
Cd1309     O1316   2.388       .  S
Cd1309     O1315   2.367       .  S
Cd1309     O1314   2.403       .  S
Cd1309     O1310   2.434       .  S
Cd1309     O1313   2.445       .  S
Cd1309     O1311   2.422       .  S
C1312      O1316   1.259       .  A
C1312      N1379   1.431       .  S
C1317      C1319   1.523       .  S
C1317      C1321   1.554       .  S
C1317      C1320   1.544       .  S
C1318      C1322   1.527       .  S
C1318      C1324   1.554       .  S
C1318      C1323   1.552       .  S
C1319      C1327   1.377       .  A
C1319      C1322   1.359       .  A
C1320      C1331   1.384       .  A
C1320      C1323   1.405       .  A
C1321      C1335   1.386       .  A
C1321      C1324   1.424       .  A
C1322      C1325   1.380       .  A
C1323      C1329   1.393       .  A
C1324      C1332   1.387       .  A
C1325      N1326   1.354       .  A
C1325      H1338   1.076       .  S
N1326      C1327   1.353       .  A
C1327      H1328   1.073       .  S
C1329      N1330   1.366       .  A
C1329      H1339   1.082       .  S
N1330      C1331   1.359       .  A
N1330      C1565   1.460       .  S
C1331      H1337   1.082       .  S
C1332      N1333   1.355       .  A
C1332      H1334   1.081       .  S
N1333      C1335   1.355       .  A
C1335      H1336   1.081       .  S
C1340      C1342   1.554       .  S
C1340      C1344   1.540       .  S
C1340      C1343   1.588       .  S
C1340      C1443   1.568       .  S
C1341      C1345   1.501       .  S
C1341      C1347   1.520       .  S
C1341      C1346   1.560       .  S
C1341      C1417   1.549       .  S
C1342      C1350   1.394       .  A
C1342      C1345   1.379       .  A
C1343      C1354   1.394       .  A
C1343      C1346   1.435       .  A
C1344      C1358   1.396       .  A
C1344      C1347   1.397       .  A
C1345      C1348   1.359       .  A
C1346      C1352   1.376       .  A
C1347      C1355   1.374       .  A
C1348      N1349   1.341       .  A
C1348      H1361   1.083       .  S
N1349      C1430   1.422       .  S
N1349      C1350   1.361       .  A
C1350      H1351   1.080       .  S
C1352      N1353   1.364       .  A
C1352      H1362   1.082       .  S
N1353      C1354   1.374       .  A
N1353      C1566   1.460   1_556  S
C1354      H1360   1.081       .  S
C1355      N1356   1.342       .  A
C1355      H1357   1.083       .  S
N1356      C1456   1.427       .  S
N1356      C1358   1.352       .  A
C1358      H1359   1.081       .  S
C1363      C1365   1.534       .  S
C1363      C1367   1.547       .  S
C1363      C1366   1.562       .  S
C1364      C1370   1.536       .  S
C1365      C1373   1.376       .  A
C1365      C1368   1.394       .  A
C1366      C1377   1.387       .  A
C1366      C1369   1.423       .  A
C1367      C1381   1.388       .  A
C1370      C1378   1.377       .  A
C1371      N1372   1.348       .  A
C1371      H1384   1.080       .  S
C1373      H1374   1.082       .  S
C1375      H1385   1.082   1_545  S
N1376      C1377   1.366       .  A
N1376      C1561   1.445       .  S
C1377      H1383   1.082       .  S
C1378      N1379   1.351       .  A
C1378      H1380   1.081       .  S
C1381      H1382   1.081       .  S
C1386      C1388   1.539   1_545  S
C1386      C1508   1.504   1_545  S
C1387      C1391   1.516       .  S
C1387      C1393   1.519       .  S
C1387      C1392   1.565       .  S
C1388      C1396   1.379       .  A
C1389      C1392   1.432       .  A
C1390      C1404   1.394       .  A
C1390      C1393   1.401       .  A
C1392      C1398   1.381       .  A
C1393      C1401   1.373       .  A
C1394      N1395   1.350       .  A
N1395      C1469   1.421       .  S
C1396      H1397   1.081       .  S
C1398      N1399   1.364       .  A
C1398      H1408   1.082       .  S
N1399      C1562   1.448       .  S
C1400      H1406   1.082   1_545  S
C1401      N1402   1.341       .  A
C1401      H1403   1.083       .  S
N1402      C1495   1.422       .  S
N1402      C1404   1.347       .  A
C1404      H1405   1.080       .  S
O1409      C1412   1.263       .  A
O1409     Cd1414   2.472       .  S
C1410      O1419   1.270       .  A
C1410      O1415   1.268       .  A
C1410      C1553   1.484       .  S
O1411      C1417   1.268       .  A
O1411     Cd1414   2.718       .  S
C1412      O1420   1.266       .  A
C1412      C1557   1.477       .  S
C1413      O1418   1.268       .  A
C1413      O1416   1.261       .  A
C1413      C1549   1.494       .  S
Cd1414     O1421   2.376       .  S
Cd1414     O1420   2.484       .  S
Cd1414     O1419   2.516       .  S
Cd1414     O1415   2.436       .  S
Cd1414     O1418   2.524       .  S
Cd1414     O1416   2.526       .  S
C1417      O1421   1.264       .  A
O1422      C1425   1.270       .  A
O1422     Cd1427   2.446       .  S
C1423      O1432   1.268       .  A
C1423      O1428   1.265       .  A
C1423      C1545   1.470       .  S
O1424      C1430   1.267       .  A
O1424     Cd1427   2.371       .  S
C1425      O1433   1.262       .  A
C1425      C1554   1.474       .  S
C1426      O1431   1.259       .  A
C1426      O1429   1.269       .  A
C1426      C1541   1.460       .  S
Cd1427     O1434   2.458       .  S
Cd1427     O1433   2.458       .  S
Cd1427     O1432   2.428       .  S
Cd1427     O1428   2.445       .  S
Cd1427     O1431   2.392       .  S
Cd1427     O1429   2.479       .  S
C1430      O1434   1.261       .  A
O1435      C1438   1.274       .  A
O1435     Cd1440   2.458       .  S
C1436      O1445   1.268       .  A
C1436      O1441   1.271       .  A
C1436      C1538   1.479       .  S
O1437      C1443   1.268       .  A
O1437     Cd1440   2.636       .  S
C1438      O1446   1.267       .  A
C1438      C1546   1.471       .  S
C1439      O1444   1.280       .  A
C1439      O1442   1.261       .  A
C1439      C1533   1.508       .  S
Cd1440     O1447   2.544       .  S
Cd1440     O1446   2.419       .  S
Cd1440     O1445   2.446       .  S
Cd1440     O1441   2.491       .  S
Cd1440     O1444   2.594       .  S
Cd1440     O1442   2.459       .  S
C1443      O1447   1.265       .  A
O1448      C1451   1.272       .  A
O1448     Cd1453   2.486       .  S
C1449      O1458   1.266       .  A
C1449      O1454   1.273       .  A
C1449      C1558   1.477       .  S
O1450      C1456   1.262       .  A
O1450     Cd1453   2.414       .  S
C1451      O1459   1.267       .  A
C1451      C1537   1.481       .  S
C1452      O1457   1.267       .  A
C1452      O1455   1.264       .  A
C1452      C1529   1.481       .  S
Cd1453     O1460   2.482       .  S
Cd1453     O1459   2.418       .  S
Cd1453     O1458   2.414       .  S
Cd1453     O1454   2.488       .  S
Cd1453     O1457   2.478       .  S
Cd1453     O1455   2.441       .  S
C1456      O1460   1.264       .  A
O1461      C1464   1.260       .  A
O1461     Cd1466   2.449       .  S
C1462      O1471   1.269       .  A
C1462      O1467   1.264       .  A
O1463      C1469   1.264       .  A
O1463     Cd1466   2.399       .  S
C1464      O1472   1.268       .  A
C1465      O1470   1.260       .  A
C1465      O1468   1.263       .  A
C1465      C1530   1.477       .  S
Cd1466     O1473   2.426       .  S
Cd1466     O1472   2.474       .  S
Cd1466     O1471   2.457       .  S
Cd1466     O1467   2.467       .  S
Cd1466     O1470   2.462       .  S
Cd1466     O1468   2.460       .  S
C1469      O1473   1.265       .  A
O1474     Cd1479   2.435       .  S
C1475      O1484   1.271       .  A
C1475      O1480   1.269       .  A
C1475      C1526   1.469       .  S
O1476      C1482   1.278       .  A
O1476     Cd1479   2.706       .  S
C1477      C1517   1.473       .  S
C1478      O1483   1.281       .  A
C1478      O1481   1.264       .  A
C1478      C1550   1.500       .  S
Cd1479     O1486   2.385       .  S
Cd1479     O1485   2.453       .  S
Cd1479     O1484   2.437       .  S
Cd1479     O1480   2.426       .  S
Cd1479     O1483   2.557       .  S
Cd1479     O1481   2.438       .  S
C1482      O1486   1.266       .  A
O1487      C1490   1.269       .  A
O1487     Cd1492   2.448       .  S
C1488      O1497   1.265       .  A
C1488      O1493   1.270       .  A
C1488      C1518   1.474       .  S
O1489      C1495   1.264       .  A
O1489     Cd1492   2.448       .  S
C1490      O1498   1.267       .  A
C1490      C1513   1.469       .  S
C1491      O1496   1.262       .  A
C1491      O1494   1.268       .  A
C1491      C1542   1.464       .  S
Cd1492     O1499   2.385       .  S
Cd1492     O1498   2.433       .  S
Cd1492     O1497   2.404       .  S
Cd1492     O1493   2.479       .  S
Cd1492     O1496   2.450       .  S
Cd1492     O1494   2.415       .  S
C1495      O1499   1.262       .  A
O1500      C1503   1.269       .  A
O1500     Cd1505   2.483       .  S
C1501      O1510   1.266       .  A
C1501      O1506   1.265       .  A
C1501      C1514   1.479   1_565  S
O1502      C1508   1.265       .  A
O1502     Cd1505   2.501       .  S
C1503      O1511   1.268       .  A
C1503      C1521   1.486       .  S
C1504      O1509   1.270       .  A
C1504      O1507   1.266       .  A
C1504      C1534   1.503       .  S
Cd1505     O1512   2.396       .  S
Cd1505     O1511   2.493       .  S
Cd1505     O1510   2.509       .  S
Cd1505     O1506   2.460       .  S
Cd1505     O1509   2.518       .  S
Cd1505     O1507   2.571       .  S
C1508      O1512   1.260       .  A
C1513      H1515   1.087       .  S
C1514      H1516   1.087       .  S
C1517      H1519   1.087       .  S
C1517      C1518   1.346       .  D
C1518      H1520   1.087       .  S
C1521      H1523   1.087       .  S
C1521      C1522   1.345       .  D
C1525      C1526   1.347       .  D
C1526      H1528   1.087       .  S
C1529      H1531   1.087       .  S
C1529      C1530   1.350       .  D
C1530      H1532   1.087       .  S
C1533      H1535   1.086       .  S
C1533      C1534   1.364       .  D
C1534      H1536   1.086       .  S
C1537      H1539   1.086       .  S
C1537      C1538   1.348       .  D
C1538      H1540   1.087       .  S
C1541      H1543   1.088       .  S
C1541      C1542   1.334       .  D
C1542      H1544   1.087       .  S
C1545      H1547   1.087       .  S
C1545      C1546   1.342       .  D
C1546      H1548   1.087       .  S
C1549      H1551   1.086       .  S
C1549      C1550   1.362       .  D
C1550      H1552   1.086       .  S
C1553      H1555   1.087       .  S
C1553      C1554   1.350       .  D
C1554      H1556   1.087       .  S
C1557      H1559   1.087       .  S
C1557      C1558   1.350       .  D
C1558      H1560   1.086       .  S
C1561      C1562   1.348       .  D
C1562      H1564   1.086       .  S
C1565      H1567   1.085       .  S
C1565      C1566   1.355       .  D
C1566      H1568   1.085       .  S
C1569      H1571   1.087       .  S
C1569      C1570   1.347       .  D
C1570      H1572   1.087       .  S
C1573      C1574   1.350       .  D
C1574      H1576   1.087       .  S
C1577      H1579   1.087       .  S
C1577      C1578   1.349       .  D
C1578      H1580   1.087       .  S
C1581      H1583   1.087       .  S
C1582      H1584   1.086       .  S
C1585      H1587   1.086       .  S
C1585      C1586   1.344       .  D
C1586      H1588   1.087       .  S
C1589      H1591   1.087       .  S
C1589      C1590   1.348       .  D
C1590      H1592   1.086       .  S
C1593      H1595   1.087       .  S
C1593      C1594   1.351       .  D
C1594      H1596   1.087       .  S
C1597      H1599   1.086       .  S
C1597      C1598   1.346       .  D
C1598      H1600   1.087       .  S
C1601      H1603   1.086       .  S
C1601      C1602   1.349       .  D
C1602      H1604   1.087       .  S
C1605      H1607   1.087       .  S
C1605      C1606   1.359       .  D
C1606      H1608   1.085       .  S
C1609      H1611   1.087       .  S
C1609      C1610   1.349       .  D
C1610      H1612   1.087       .  S
C1613      H1615   1.087       .  S
C1613      C1614   1.349       .  D
C1614      H1616   1.087       .  S
