geometry optimzed in LAMMPS
_audit_creation_date              2020-11-30 
_audit_creation_method            'lammps2cif' 
_symmetry_space_group_name_H-M    'P1' 
_symmetry_Int_Tables_number       1 
_symmetry_cell_setting            triclinic 
loop_ 
_symmetry_equiv_pos_as_xyz 
  x,y,z 
_cell_length_a                    33.58244116 
_cell_length_b                    33.59275257002606 
_cell_length_c                    40.17449115545648 
_cell_angle_alpha                 89.99992660656618 
_cell_angle_beta                  90.00212107597757 
_cell_angle_gamma                 119.96672878038714 
loop_ 
_atom_site_label 
_atom_site_type_symbol 
_atom_site_fract_x 
_atom_site_fract_y 
_atom_site_fract_z 
_atom_site_charge 
Zn1        Zn  0.30306632  0.10405967  0.90454880     1.49700
Zn2        Zn  0.39806881  0.19900703  0.90456082     1.49400
Zn3        Zn  0.30300087  0.19897165  0.90453715     1.49100
Zn4        Zn  0.33476618  0.16739202  0.97054458     1.49500
O5          O  0.33473244  0.16736125  0.92140545    -1.80400
O6          O  0.34460375  0.09132309  0.87598324    -0.71000
O7          O  0.41073094  0.25321885  0.87597522    -0.70800
O8          O  0.24870602  0.15745744  0.87598257    -0.70400
O9          O  0.41081117  0.15746843  0.87599261    -0.71000
O10         O  0.24877140  0.09129952  0.87597955    -0.70600
O11         O  0.34449230  0.25318221  0.87595984    -0.71200
O12         O  0.30160766  0.20053701  0.98810096    -0.70600
O13         O  0.44368804  0.22185439  0.94203319    -0.71400
O14         O  0.28022501  0.22179104  0.94200483    -0.70800
O15         O  0.40105368  0.20054706  0.98811900    -0.71200
O16         O  0.30162071  0.10113299  0.98812262    -0.71100
O17         O  0.28028085  0.05851098  0.94203185    -0.70900
C18         C  0.38613650  0.11595440  0.86678314     0.80900
C19         C  0.38602777  0.27005493  0.86676205     0.81400
C20         C  0.23185349  0.11593491  0.86678553     0.80300
C21         C  0.28205981  0.22001826  0.97352818     0.80700
C22         C  0.44007710  0.22006963  0.97355812     0.81800
C23         C  0.28208502  0.06212351  0.97355552     0.80900
Zn24       Zn  0.30275902  0.10377190  0.59235181     1.49700
Zn25       Zn  0.39768285  0.19873392  0.59238667     1.49400
Zn26       Zn  0.33433114  0.16707154  0.52638106     1.49100
Zn27       Zn  0.30272851  0.19879216  0.59239043     1.49500
O28         O  0.33436874  0.16709012  0.57551946    -1.80400
O29         O  0.34432688  0.09100763  0.62087497    -0.71000
O30         O  0.44323379  0.22153295  0.55490956    -0.70800
O31         O  0.30121335  0.10080817  0.50879415    -0.70400
O32         O  0.41046944  0.15720887  0.62091954    -0.71000
O33         O  0.27992110  0.05818510  0.55487930    -0.70600
O34         O  0.40060640  0.20021481  0.50881411    -0.71200
O35         O  0.27989100  0.22157764  0.55492260    -0.70600
O36         O  0.41043207  0.25298645  0.62096991    -0.71400
O37         O  0.30118802  0.20023724  0.50882794    -0.70800
O38         O  0.34426273  0.25307179  0.62094523    -0.71200
O39         O  0.24853535  0.15728261  0.62099274    -0.71100
O40         O  0.24856798  0.09109608  0.62097078    -0.70900
C41         C  0.38585165  0.11567155  0.63008581     0.80900
C42         C  0.43962335  0.21973587  0.52338672     0.81400
C43         C  0.28172065  0.06179614  0.52335552     0.80300
C44         C  0.28169573  0.21977534  0.52339779     0.80700
C45         C  0.38579203  0.26990487  0.63015570     0.81800
C46         C  0.23170804  0.11576757  0.63020000     0.80900
C47         C  0.00115198  0.00043464  0.78091526     0.49200
H48         H  0.00108789  0.00040718  0.80860151     0.00200
C49         C  0.00128868  0.00049016  0.71600337     0.49200
H50         H  0.00135329  0.50052092  0.68831706     0.00200
C51         C  0.47709040  0.02454416  0.76544773    -0.13500
C52         C  0.04936205  0.02451981  0.76554529    -0.13300
C53         C  0.47710614  0.45229091  0.76545058    -0.13700
C54         C  0.47715827  0.02457026  0.73140374    -0.13600
C55         C  0.04942672  0.02454396  0.73150193    -0.13200
C56         C  0.47717432  0.45231455  0.73140668    -0.13500
Zn57       Zn  0.16753952  0.33377785  0.37235344     1.49700
Zn58       Zn  0.13570482  0.36577398  0.43716719     1.49400
Zn59       Zn  0.13575036  0.26994382  0.43713975     1.49100
Zn60       Zn  0.23169354  0.36580163  0.43692231     1.49500
O61         O  0.16768253  0.33383173  0.42114185    -1.80400
O62         O  0.13554763  0.36561030  0.35393092    -0.71000
O63         O  0.07915115  0.32274654  0.46407184    -0.70800
O64         O  0.11333652  0.22513364  0.39870746    -0.70400
O65         O  0.11323711  0.38817598  0.39874239    -0.71000
O66         O  0.13559812  0.27000959  0.35391123    -0.70600
O67         O  0.07918045  0.25641187  0.46403257    -0.71200
O68         O  0.24524573  0.32275264  0.46382955    -0.70600
O69         O  0.17880150  0.42229620  0.46404794    -0.71400
O70         O  0.17884016  0.25648576  0.46403223    -0.70800
O71         O  0.24523021  0.42239283  0.46381122    -0.71200
O72         O  0.27636677  0.38811674  0.39832704    -0.71100
O73         O  0.23124211  0.36561797  0.35365968    -0.70900
C74         C  0.11584109  0.38540747  0.36733179     0.80900
C75         C  0.06093242  0.28046067  0.47192250     0.81400
C76         C  0.11592932  0.23052437  0.36729993     0.80300
C77         C  0.22116456  0.28051541  0.47181547     0.80700
C78         C  0.22113929  0.44056649  0.47180583     0.81800
C79         C  0.27082357  0.38537499  0.36692647     0.80900
Zn80       Zn  0.13611829  0.27016785  0.05994079     1.49700
Zn81       Zn  0.16822473  0.33417074  0.12458426     1.47800
Zn82       Zn  0.23196498  0.36604661  0.05972201     1.49100
Zn83       Zn  0.13609113  0.36611721  0.05991982     1.49500
O84         O  0.16809048  0.33412330  0.07579520    -1.80400
O85         O  0.11380396  0.22543425  0.09847379    -0.71000
O86         O  0.23204426  0.36606472  0.14294672    -0.70800
O87         O  0.24544184  0.32298152  0.03282221    -0.70400
O88         O  0.13643818  0.27044945  0.14319169    -0.71000
O89         O  0.17914928  0.25661193  0.03302265    -0.70600
O90         O  0.27685009  0.38847251  0.09810562    -0.71200
O91         O  0.17910425  0.42269026  0.03301266    -0.70600
O92         O  0.13642321  0.36612425  0.14317446    -0.71400
O93         O  0.24542125  0.42257976  0.03283762    -0.70800
O94         O  0.11376807  0.38852891  0.09846025    -0.71200
O95         O  0.07951234  0.32304650  0.03303653    -0.71100
O96         O  0.07954093  0.25669764  0.03305906    -0.70900
C97         C  0.11662944  0.23091128  0.12987834     0.80900
C98         C  0.27151359  0.38580013  0.12951708     0.81400
C99         C  0.22139923  0.28067015  0.02504356     0.80300
C100        C  0.22136526  0.44086262  0.02505294     0.80700
C101        C  0.11660433  0.38586987  0.12986325     0.81800
C102        C  0.06130424  0.28076223  0.02516516     0.80900
C103        C  0.00104227  0.00065133  0.28091395     0.49200
H104        H  0.00089803  0.00058558  0.30860212     0.00200
C105        C  0.00141324  0.00082281  0.21602807     0.49200
H106        H  0.00155853  0.00088582  0.18833986     0.00200
C107        C  0.02522547  0.47660618  0.26556846    -0.13500
C108        C  0.45295631  0.47661444  0.26536912    -0.13300
C109        C  0.02519547  0.04884045  0.26555104    -0.13700
C110        C  0.02543114  0.47670207  0.23151824    -0.13600
C111        C  0.45316422  0.47671303  0.23131869    -0.13200
C112        C  0.02539954  0.04893924  0.23150047    -0.13500
C113        C  0.04594282  0.08979254  0.21122037    -0.14800
C114        C  0.06228094  0.12228952  0.19268335     0.09300
C115        C  0.08091241  0.15942074  0.17016522     0.11100
C116        C  0.09693126  0.19143896  0.15118236    -0.15600
C117        C  0.31107215  0.40558308  0.15070355    -0.14800
C118        C  0.34309592  0.42161000  0.16966542     0.09300
C119        C  0.38012835  0.44015112  0.19223874     0.11100
C120        C  0.41249449  0.45635637  0.21087967    -0.15600
C121        C  0.09691171  0.40565950  0.15117175    -0.14800
C122        C  0.08090981  0.42167234  0.17017016     0.09300
C123        C  0.06230158  0.44018742  0.19270653     0.11100
C124        C  0.04597460  0.45636470  0.21125027    -0.15600
C125        C  0.31026941  0.40510640  0.34557550    -0.14800
C126        C  0.34229077  0.42114800  0.32658167     0.09300
C127        C  0.37946610  0.43978875  0.30408367     0.11100
C128        C  0.41202218  0.45611217  0.28558678    -0.15600
C129        C  0.09614674  0.19101041  0.34607317    -0.14800
C130        C  0.08014002  0.15900391  0.32710009     0.09300
C131        C  0.06164254  0.12196010  0.30453880     0.11100
C132        C  0.04548750  0.08956380  0.28592978    -0.15600
C133        C  0.04549085  0.45612709  0.28595982    -0.14800
C134        C  0.06160450  0.43982699  0.30457577     0.09300
C135        C  0.08005624  0.42120973  0.32714167     0.11100
C136        C  0.09604340  0.40516483  0.34611406    -0.15600
C137        C  0.26089702  0.02009987  0.50399248    -0.09500
C138        C  0.24272960  0.48371542  0.48943170    -0.11100
C139        C  0.48133579  0.24062442  0.50404102    -0.09500
C140        C  0.01775284  0.25886169  0.48951610    -0.11100
C141        C  0.26088856  0.24068964  0.50403837    -0.09500
C142        C  0.24274522  0.25894054  0.48946310    -0.11100
C143        C  0.40532224  0.09624745  0.65195295    -0.14800
C144        C  0.42141310  0.08023024  0.67086703     0.09300
C145        C  0.44026630  0.06145904  0.69295946     0.11100
C146        C  0.45672168  0.04503458  0.71115140    -0.15600
C147        C  0.19291371  0.09636776  0.65213351    -0.14800
C148        C  0.16086536  0.08032768  0.67108178     0.09300
C149        C  0.12326895  0.06150285  0.69317331     0.11100
C150        C  0.09037259  0.04503282  0.71132897    -0.15600
C151        C  0.45671933  0.41142212  0.71116147    -0.14800
C152        C  0.44023815  0.37853318  0.69299201     0.09300
C153        C  0.42135359  0.34088906  0.67092905     0.11100
C154        C  0.40525009  0.30877741  0.65203067    -0.15600
C155        C  0.48178260  0.24096606  0.99292791    -0.09500
C156        C  0.01816023  0.25918709  0.00751380    -0.11100
C157        C  0.26118067  0.02042487  0.99290979    -0.09500
C158        C  0.24293606  0.48402575  0.00744822    -0.11100
C159        C  0.26118660  0.24087003  0.99287760    -0.09500
C160        C  0.24296865  0.25906616  0.00742345    -0.11100
C161        C  0.40553719  0.09650804  0.84487458    -0.14800
C162        C  0.42151346  0.08041177  0.82593108     0.09300
C163        C  0.44023451  0.06152757  0.80382482     0.11100
C164        C  0.45663150  0.04503208  0.78564739    -0.15600
C165        C  0.09024688  0.04499926  0.78581417    -0.14800
C166        C  0.12314730  0.06149517  0.80398368     0.09300
C167        C  0.16081910  0.08038304  0.82603423     0.11100
C168        C  0.19295602  0.09648032  0.84492034    -0.15600
C169        C  0.45661340  0.41138165  0.78565271    -0.14800
C170        C  0.44017066  0.37851095  0.80382552     0.09300
C171        C  0.42140147  0.34092703  0.82592134     0.11100
C172        C  0.40540676  0.30887164  0.84485685    -0.15600
Zn173      Zn  0.30306634  0.60405965  0.90454880     1.49700
Zn174      Zn  0.39806880  0.69900703  0.90456082     1.49400
Zn175      Zn  0.30300084  0.69897160  0.90453715     1.49100
Zn176      Zn  0.33476620  0.66739202  0.97054459     1.49500
O177        O  0.33473244  0.66736123  0.92140546    -1.80400
O178        O  0.34460378  0.59132309  0.87598325    -0.71000
O179        O  0.41073091  0.75321881  0.87597522    -0.70800
O180        O  0.24870599  0.65745736  0.87598258    -0.70400
O181        O  0.41081119  0.65746844  0.87599262    -0.71000
O182        O  0.24877140  0.59129946  0.87597955    -0.70600
O183        O  0.34449224  0.75318215  0.87595983    -0.71200
O184        O  0.30160769  0.70053703  0.98810096    -0.70600
O185        O  0.44368804  0.72185442  0.94203318    -0.71400
O186        O  0.28022497  0.72179099  0.94200483    -0.70800
O187        O  0.40105370  0.70054707  0.98811900    -0.71200
O188        O  0.30162072  0.60113300  0.98812263    -0.71100
O189        O  0.28028088  0.55851098  0.94203186    -0.70900
C190        C  0.38613653  0.61595442  0.86678315     0.80900
C191        C  0.38602772  0.77005488  0.86676204     0.81400
C192        C  0.23185347  0.61593485  0.86678554     0.80300
C193        C  0.28205980  0.72001824  0.97352818     0.80700
C194        C  0.44007710  0.72006964  0.97355811     0.81800
C195        C  0.28208504  0.56212352  0.97355553     0.80900
Zn196      Zn  0.30275905  0.60377193  0.59235182     1.49700
Zn197      Zn  0.39768287  0.69873397  0.59238666     1.49400
Zn198      Zn  0.33433115  0.66707155  0.52638105     1.49100
Zn199      Zn  0.30272852  0.69879219  0.59239042     1.49500
O200        O  0.33436876  0.66709015  0.57551945    -1.80400
O201        O  0.34432694  0.59100770  0.62087498    -0.71000
O202        O  0.44323381  0.72153303  0.55490955    -0.70800
O203        O  0.30121336  0.60080816  0.50879416    -0.70400
O204        O  0.41046949  0.65720895  0.62091952    -0.71000
O205        O  0.27992112  0.55818511  0.55487932    -0.70600
O206        O  0.40060641  0.70021483  0.50881411    -0.71200
O207        O  0.27989103  0.72157768  0.55492259    -0.70600
O208        O  0.41043208  0.75298647  0.62096991    -0.71400
O209        O  0.30118801  0.70023723  0.50882793    -0.70800
O210        O  0.34426273  0.75307181  0.62094523    -0.71200
O211        O  0.24853536  0.65728264  0.62099273    -0.71100
O212        O  0.24856801  0.59109612  0.62097080    -0.70900
C213        C  0.38585171  0.61567164  0.63008580     0.80900
C214        C  0.43962336  0.71973593  0.52338671     0.81400
C215        C  0.28172066  0.56179614  0.52335554     0.80300
C216        C  0.28169573  0.71977535  0.52339778     0.80700
C217        C  0.38579203  0.76990488  0.63015571     0.81800
C218        C  0.23170806  0.61576760  0.63020000     0.80900
C219        C  0.00115197  0.50043463  0.78091524     0.49200
H220        H  0.00108788  0.50040716  0.80860150     0.00200
C221        C  0.00128869  0.50049021  0.71600335     0.49200
H222        H  0.00135325  0.00052084  0.68831709     0.00200
C223        C  0.47709041  0.52454418  0.76544773    -0.13500
C224        C  0.04936205  0.52451982  0.76554528    -0.13300
C225        C  0.47710614  0.95229090  0.76545061    -0.13700
C226        C  0.47715829  0.52457031  0.73140373    -0.13600
C227        C  0.04942673  0.52454400  0.73150192    -0.13200
C228        C  0.47717430  0.95231451  0.73140671    -0.13500
Zn229      Zn  0.16753952  0.83377786  0.37235343     1.49700
Zn230      Zn  0.13570483  0.86577399  0.43716718     1.49400
Zn231      Zn  0.13575035  0.76994382  0.43713975     1.49100
Zn232      Zn  0.23169354  0.86580163  0.43692230     1.49500
O233        O  0.16768254  0.83383173  0.42114185    -1.80400
O234        O  0.13554766  0.86561034  0.35393091    -0.71000
O235        O  0.07915117  0.82274657  0.46407184    -0.70800
O236        O  0.11333652  0.72513366  0.39870745    -0.70400
O237        O  0.11323712  0.88817599  0.39874239    -0.71000
O238        O  0.13559811  0.77000961  0.35391122    -0.70600
O239        O  0.07918045  0.75641189  0.46403257    -0.71200
O240        O  0.24524572  0.82275263  0.46382956    -0.70600
O241        O  0.17880152  0.92229622  0.46404792    -0.71400
O242        O  0.17884015  0.75648576  0.46403223    -0.70800
O243        O  0.24523022  0.92239285  0.46381119    -0.71200
O244        O  0.27636677  0.88811669  0.39832703    -0.71100
O245        O  0.23124210  0.86561794  0.35365968    -0.70900
C246        C  0.11584112  0.88540750  0.36733179     0.80900
C247        C  0.06093243  0.78046070  0.47192249     0.81400
C248        C  0.11592932  0.73052439  0.36729993     0.80300
C249        C  0.22116454  0.78051541  0.47181547     0.80700
C250        C  0.22113931  0.94056652  0.47180580     0.81800
C251        C  0.27082356  0.88537494  0.36692646     0.80900
Zn252      Zn  0.13611828  0.77016785  0.05994079     1.49700
Zn253      Zn  0.16822473  0.83417075  0.12458424     1.47800
Zn254      Zn  0.23196497  0.86604660  0.05972198     1.49100
Zn255      Zn  0.13609113  0.86611720  0.05991981     1.49500
O256        O  0.16809048  0.83412329  0.07579519    -1.80400
O257        O  0.11380394  0.72543424  0.09847379    -0.71000
O258        O  0.23204428  0.86606473  0.14294670    -0.70800
O259        O  0.24544183  0.82298149  0.03282220    -0.70400
O260        O  0.13643817  0.77044946  0.14319168    -0.71000
O261        O  0.17914927  0.75661190  0.03302265    -0.70600
O262        O  0.27685010  0.88847254  0.09810559    -0.71200
O263        O  0.17910424  0.92269025  0.03301265    -0.70600
O264        O  0.13642325  0.86612430  0.14317443    -0.71400
O265        O  0.24542123  0.92257974  0.03283759    -0.70800
O266        O  0.11376806  0.88852891  0.09846021    -0.71200
O267        O  0.07951236  0.82304651  0.03303650    -0.71100
O268        O  0.07954094  0.75669764  0.03305905    -0.70900
C269        C  0.11662942  0.73091128  0.12987833     0.80900
C270        C  0.27151361  0.88580016  0.12951704     0.81400
C271        C  0.22139922  0.78067013  0.02504356     0.80300
C272        C  0.22136524  0.94086261  0.02505292     0.80700
C273        C  0.11660435  0.88586991  0.12986322     0.81800
C274        C  0.06130426  0.78076225  0.02516514     0.80900
C275        C  0.00104228  0.50065134  0.28091397     0.49200
H276        H  0.00089805  0.50058560  0.30860214     0.00200
C277        C  0.00141324  0.50082282  0.21602809     0.49200
H278        H  0.00155853  0.50088581  0.18833987     0.00200
C279        C  0.02522547  0.97660619  0.26556845    -0.13500
C280        C  0.45295631  0.97661441  0.26536911    -0.13300
C281        C  0.02519548  0.54884046  0.26555106    -0.13700
C282        C  0.02543114  0.97670207  0.23151823    -0.13600
C283        C  0.45316422  0.97671301  0.23131868    -0.13200
C284        C  0.02539955  0.54893925  0.23150048    -0.13500
C285        C  0.04594282  0.58979255  0.21122038    -0.14800
C286        C  0.06228094  0.62228954  0.19268337     0.09300
C287        C  0.08091240  0.65942076  0.17016523     0.11100
C288        C  0.09693125  0.69143898  0.15118236    -0.15600
C289        C  0.31107218  0.90558316  0.15070351    -0.14800
C290        C  0.34309594  0.92161010  0.16966539     0.09300
C291        C  0.38012837  0.94015121  0.19223871     0.11100
C292        C  0.41249449  0.95635642  0.21087965    -0.15600
C293        C  0.09691175  0.90565956  0.15117172    -0.14800
C294        C  0.08090985  0.92167241  0.17017012     0.09300
C295        C  0.06230162  0.94018746  0.19270651     0.11100
C296        C  0.04597463  0.95636472  0.21125026    -0.15600
C297        C  0.31026940  0.90510632  0.34557549    -0.14800
C298        C  0.34229076  0.92114792  0.32658165     0.09300
C299        C  0.37946609  0.93978868  0.30408365     0.11100
C300        C  0.41202217  0.95611213  0.28558676    -0.15600
C301        C  0.09614675  0.69101044  0.34607316    -0.14800
C302        C  0.08014003  0.65900393  0.32710008     0.09300
C303        C  0.06164256  0.62196012  0.30453880     0.11100
C304        C  0.04548751  0.58956381  0.28592979    -0.15600
C305        C  0.04549091  0.95612715  0.28595982    -0.14800
C306        C  0.06160459  0.93982708  0.30457577     0.09300
C307        C  0.08005632  0.92120982  0.32714167     0.11100
C308        C  0.09604346  0.90516490  0.34611405    -0.15600
C309        C  0.26089701  0.52009985  0.50399250    -0.09500
C310        C  0.24272962  0.98371545  0.48943166    -0.11100
C311        C  0.48133580  0.74062449  0.50404101    -0.09500
C312        C  0.01775286  0.75886173  0.48951610    -0.11100
C313        C  0.26088856  0.74068964  0.50403836    -0.09500
C314        C  0.24274521  0.75894053  0.48946310    -0.11100
C315        C  0.40532232  0.59624757  0.65195295    -0.14800
C316        C  0.42141318  0.58023037  0.67086704     0.09300
C317        C  0.44026637  0.56145915  0.69295947     0.11100
C318        C  0.45672173  0.54503467  0.71115140    -0.15600
C319        C  0.19291373  0.59636780  0.65213351    -0.14800
C320        C  0.16086539  0.58032774  0.67108179     0.09300
C321        C  0.12326897  0.56150293  0.69317331     0.11100
C322        C  0.09037261  0.54503289  0.71132897    -0.15600
C323        C  0.45671932  0.91142207  0.71116152    -0.14800
C324        C  0.44023813  0.87853314  0.69299206     0.09300
C325        C  0.42135358  0.84088903  0.67092909     0.11100
C326        C  0.40525008  0.80877740  0.65203069    -0.15600
C327        C  0.48178261  0.74096608  0.99292790    -0.09500
C328        C  0.01816026  0.75918711  0.00751377    -0.11100
C329        C  0.26118069  0.52042489  0.99290981    -0.09500
C330        C  0.24293604  0.98402573  0.00744820    -0.11100
C331        C  0.26118658  0.74087001  0.99287760    -0.09500
C332        C  0.24296863  0.75906613  0.00742345    -0.11100
C333        C  0.40553723  0.59650807  0.84487459    -0.14800
C334        C  0.42151349  0.58041181  0.82593108     0.09300
C335        C  0.44023453  0.56152760  0.80382482     0.11100
C336        C  0.45663152  0.54503210  0.78564739    -0.15600
C337        C  0.09024687  0.54499928  0.78581417    -0.14800
C338        C  0.12314729  0.56149516  0.80398369     0.09300
C339        C  0.16081909  0.58038300  0.82603424     0.11100
C340        C  0.19295601  0.59648025  0.84492034    -0.15600
C341        C  0.45661339  0.91138164  0.78565275    -0.14800
C342        C  0.44017065  0.87851093  0.80382554     0.09300
C343        C  0.42140143  0.84092699  0.82592134     0.11100
C344        C  0.40540671  0.80887158  0.84485684    -0.15600
Zn345      Zn  0.80306633  0.10405966  0.90454880     1.49700
Zn346      Zn  0.89806883  0.19900702  0.90456082     1.49400
Zn347      Zn  0.80300090  0.19897165  0.90453716     1.49100
Zn348      Zn  0.83476622  0.16739202  0.97054458     1.49500
O349        O  0.83473246  0.16736125  0.92140545    -1.80400
O350        O  0.84460375  0.09132307  0.87598324    -0.71000
O351        O  0.91073098  0.25321885  0.87597523    -0.70800
O352        O  0.74870605  0.15745745  0.87598257    -0.70400
O353        O  0.91081116  0.15746842  0.87599259    -0.71000
O354        O  0.74877140  0.09129952  0.87597956    -0.70600
O355        O  0.84449232  0.25318221  0.87595985    -0.71200
O356        O  0.80160770  0.20053702  0.98810097    -0.70600
O357        O  0.94368807  0.22185436  0.94203317    -0.71400
O358        O  0.78022505  0.22179105  0.94200483    -0.70800
O359        O  0.90105372  0.20054706  0.98811899    -0.71200
O360        O  0.80162073  0.10113299  0.98812263    -0.71100
O361        O  0.78028085  0.05851097  0.94203185    -0.70900
C362        C  0.88613649  0.11595439  0.86678313     0.80900
C363        C  0.88602780  0.27005493  0.86676205     0.81400
C364        C  0.73185350  0.11593492  0.86678554     0.80300
C365        C  0.78205984  0.22001827  0.97352818     0.80700
C366        C  0.94007713  0.22006961  0.97355810     0.81800
C367        C  0.78208502  0.06212351  0.97355552     0.80900
Zn368      Zn  0.80275904  0.10377190  0.59235181     1.49700
Zn369      Zn  0.89768285  0.19873393  0.59238667     1.49400
Zn370      Zn  0.83433114  0.16707154  0.52638106     1.49100
Zn371      Zn  0.80272850  0.19879215  0.59239043     1.49500
O372        O  0.83436875  0.16709012  0.57551946    -1.80400
O373        O  0.84432692  0.09100764  0.62087497    -0.71000
O374        O  0.94323379  0.22153296  0.55490956    -0.70800
O375        O  0.80121335  0.10080817  0.50879415    -0.70400
O376        O  0.91046946  0.15720889  0.62091955    -0.71000
O377        O  0.77992113  0.05818510  0.55487930    -0.70600
O378        O  0.90060640  0.20021480  0.50881411    -0.71200
O379        O  0.77989099  0.22157763  0.55492260    -0.70600
O380        O  0.91043206  0.25298645  0.62096991    -0.71400
O381        O  0.80118802  0.20023723  0.50882794    -0.70800
O382        O  0.84426271  0.25307179  0.62094523    -0.71200
O383        O  0.74853534  0.15728259  0.62099273    -0.71100
O384        O  0.74856800  0.09109607  0.62097078    -0.70900
C385        C  0.88585168  0.11567157  0.63008581     0.80900
C386        C  0.93962335  0.21973587  0.52338672     0.81400
C387        C  0.78172067  0.06179614  0.52335553     0.80300
C388        C  0.78169572  0.21977534  0.52339779     0.80700
C389        C  0.88579202  0.26990487  0.63015570     0.81800
C390        C  0.73170805  0.11576755  0.63020000     0.80900
C391        C  0.50115199  0.00043465  0.78091526     0.49200
H392        H  0.50108789  0.00040718  0.80860151     0.00200
C393        C  0.50128868  0.00049016  0.71600336     0.49200
H394        H  0.50135328  0.50052092  0.68831706     0.00200
C395        C  0.97709038  0.02454415  0.76544774    -0.13500
C396        C  0.54936206  0.02451980  0.76554529    -0.13300
C397        C  0.97710615  0.45229090  0.76545058    -0.13700
C398        C  0.97715825  0.02457024  0.73140375    -0.13600
C399        C  0.54942673  0.02454395  0.73150192    -0.13200
C400        C  0.97717433  0.45231454  0.73140667    -0.13500
Zn401      Zn  0.66753951  0.33377785  0.37235344     1.49700
Zn402      Zn  0.63570483  0.36577399  0.43716720     1.49400
Zn403      Zn  0.63575037  0.26994382  0.43713976     1.49100
Zn404      Zn  0.73169356  0.36580163  0.43692230     1.49500
O405        O  0.66768254  0.33383173  0.42114185    -1.80400
O406        O  0.63554762  0.36561030  0.35393092    -0.71000
O407        O  0.57915117  0.32274656  0.46407185    -0.70800
O408        O  0.61333652  0.22513365  0.39870747    -0.70400
O409        O  0.61323712  0.38817599  0.39874240    -0.71000
O410        O  0.63559811  0.27000959  0.35391123    -0.70600
O411        O  0.57918047  0.25641188  0.46403258    -0.71200
O412        O  0.74524575  0.32275263  0.46382953    -0.70600
O413        O  0.67880154  0.42229621  0.46404794    -0.71400
O414        O  0.67884017  0.25648577  0.46403223    -0.70800
O415        O  0.74523024  0.42239283  0.46381122    -0.71200
O416        O  0.77636677  0.38811675  0.39832703    -0.71100
O417        O  0.73124210  0.36561797  0.35365968    -0.70900
C418        C  0.61584109  0.38540747  0.36733180     0.80900
C419        C  0.56093243  0.28046069  0.47192251     0.81400
C420        C  0.61592931  0.23052437  0.36729994     0.80300
C421        C  0.72116457  0.28051541  0.47181546     0.80700
C422        C  0.72113933  0.44056649  0.47180583     0.81800
C423        C  0.77082356  0.38537499  0.36692646     0.80900
Zn424      Zn  0.63611828  0.27016784  0.05994078     1.49700
Zn425      Zn  0.66822473  0.33417073  0.12458426     1.47800
Zn426      Zn  0.73196497  0.36604661  0.05972200     1.49100
Zn427      Zn  0.63609111  0.36611719  0.05991983     1.49500
O428        O  0.66809047  0.33412329  0.07579520    -1.80400
O429        O  0.61380394  0.22543424  0.09847379    -0.71000
O430        O  0.73204426  0.36606470  0.14294672    -0.70800
O431        O  0.74544185  0.32298152  0.03282221    -0.70400
O432        O  0.63643818  0.27044944  0.14319169    -0.71000
O433        O  0.67914928  0.25661192  0.03302264    -0.70600
O434        O  0.77685009  0.38847252  0.09810562    -0.71200
O435        O  0.67910423  0.42269026  0.03301267    -0.70600
O436        O  0.63642322  0.36612424  0.14317447    -0.71400
O437        O  0.74542123  0.42257976  0.03283762    -0.70800
O438        O  0.61376804  0.38852887  0.09846026    -0.71200
O439        O  0.57951232  0.32304650  0.03303654    -0.71100
O440        O  0.57954091  0.25669763  0.03305905    -0.70900
C441        C  0.61662942  0.23091127  0.12987833     0.80900
C442        C  0.77151359  0.38580013  0.12951707     0.81400
C443        C  0.72139924  0.28067015  0.02504356     0.80300
C444        C  0.72136523  0.44086262  0.02505295     0.80700
C445        C  0.61660432  0.38586984  0.12986327     0.81800
C446        C  0.56130421  0.28076223  0.02516516     0.80900
C447        C  0.50104228  0.00065133  0.28091396     0.49200
H448        H  0.50089803  0.00058558  0.30860213     0.00200
C449        C  0.50141325  0.00082281  0.21602808     0.49200
H450        H  0.50155855  0.00088580  0.18833987     0.00200
C451        C  0.52522547  0.47660619  0.26556846    -0.13500
C452        C  0.95295631  0.47661444  0.26536913    -0.13300
C453        C  0.52519547  0.04884045  0.26555105    -0.13700
C454        C  0.52543114  0.47670207  0.23151824    -0.13600
C455        C  0.95316422  0.47671303  0.23131869    -0.13200
C456        C  0.52539954  0.04893924  0.23150047    -0.13500
C457        C  0.54594280  0.08979253  0.21122037    -0.14800
C458        C  0.56228092  0.12228952  0.19268335     0.09300
C459        C  0.58091238  0.15942073  0.17016521     0.11100
C460        C  0.59693124  0.19143895  0.15118235    -0.15600
C461        C  0.81107215  0.40558309  0.15070354    -0.14800
C462        C  0.84309592  0.42161001  0.16966542     0.09300
C463        C  0.88012835  0.44015113  0.19223874     0.11100
C464        C  0.91249448  0.45635638  0.21087967    -0.15600
C465        C  0.59691170  0.40565947  0.15117177    -0.14800
C466        C  0.58090979  0.42167231  0.17017017     0.09300
C467        C  0.56230158  0.44018740  0.19270653     0.11100
C468        C  0.54597459  0.45636469  0.21125027    -0.15600
C469        C  0.81026939  0.40510641  0.34557548    -0.14800
C470        C  0.84229076  0.42114801  0.32658166     0.09300
C471        C  0.87946610  0.43978876  0.30408366     0.11100
C472        C  0.91202218  0.45611218  0.28558678    -0.15600
C473        C  0.59614672  0.19101041  0.34607317    -0.14800
C474        C  0.58014000  0.15900391  0.32710009     0.09300
C475        C  0.56164252  0.12196010  0.30453880     0.11100
C476        C  0.54548748  0.08956380  0.28592978    -0.15600
C477        C  0.54549085  0.45612709  0.28595982    -0.14800
C478        C  0.56160450  0.43982698  0.30457577     0.09300
C479        C  0.58005622  0.42120972  0.32714168     0.11100
C480        C  0.59604339  0.40516483  0.34611407    -0.15600
C481        C  0.76089704  0.02009987  0.50399248    -0.09500
C482        C  0.74272964  0.48371542  0.48943170    -0.11100
C483        C  0.98133578  0.24062441  0.50404101    -0.09500
C484        C  0.51775286  0.25886171  0.48951611    -0.11100
C485        C  0.76088856  0.24068963  0.50403837    -0.09500
C486        C  0.74274523  0.25894054  0.48946310    -0.11100
C487        C  0.90532227  0.09624748  0.65195295    -0.14800
C488        C  0.92141311  0.08023026  0.67086704     0.09300
C489        C  0.94026629  0.06145904  0.69295947     0.11100
C490        C  0.95672166  0.04503457  0.71115141    -0.15600
C491        C  0.69291372  0.09636774  0.65213350    -0.14800
C492        C  0.66086537  0.08032766  0.67108178     0.09300
C493        C  0.62326895  0.06150284  0.69317330     0.11100
C494        C  0.59037260  0.04503280  0.71132897    -0.15600
C495        C  0.95671937  0.41142211  0.71116147    -0.14800
C496        C  0.94023818  0.37853318  0.69299200     0.09300
C497        C  0.92135360  0.34088905  0.67092905     0.11100
C498        C  0.90525008  0.30877741  0.65203066    -0.15600
C499        C  0.98178263  0.24096604  0.99292790    -0.09500
C500        C  0.51816020  0.25918710  0.00751381    -0.11100
C501        C  0.76118066  0.02042487  0.99290980    -0.09500
C502        C  0.74293603  0.48402575  0.00744823    -0.11100
C503        C  0.76118662  0.24087003  0.99287761    -0.09500
C504        C  0.74296866  0.25906616  0.00742345    -0.11100
C505        C  0.90553717  0.09650802  0.84487457    -0.14800
C506        C  0.92151344  0.08041176  0.82593107     0.09300
C507        C  0.94023448  0.06152755  0.80382482     0.11100
C508        C  0.95663148  0.04503206  0.78564739    -0.15600
C509        C  0.59024689  0.04499927  0.78581417    -0.14800
C510        C  0.62314731  0.06149518  0.80398369     0.09300
C511        C  0.66081911  0.08038305  0.82603424     0.11100
C512        C  0.69295603  0.09648034  0.84492034    -0.15600
C513        C  0.95661340  0.41138163  0.78565270    -0.14800
C514        C  0.94017066  0.37851094  0.80382551     0.09300
C515        C  0.92140148  0.34092702  0.82592134     0.11100
C516        C  0.90540678  0.30887164  0.84485685    -0.15600
Zn517      Zn  0.80306634  0.60405965  0.90454881     1.49700
Zn518      Zn  0.89806883  0.69900702  0.90456081     1.49400
Zn519      Zn  0.80300087  0.69897160  0.90453716     1.49100
Zn520      Zn  0.83476625  0.66739203  0.97054459     1.49500
O521        O  0.83473247  0.66736123  0.92140546    -1.80400
O522        O  0.84460377  0.59132308  0.87598325    -0.71000
O523        O  0.91073094  0.75321882  0.87597522    -0.70800
O524        O  0.74870601  0.65745738  0.87598258    -0.70400
O525        O  0.91081118  0.65746843  0.87599259    -0.71000
O526        O  0.74877140  0.59129947  0.87597956    -0.70600
O527        O  0.84449227  0.75318215  0.87595984    -0.71200
O528        O  0.80160775  0.70053705  0.98810097    -0.70600
O529        O  0.94368809  0.72185439  0.94203315    -0.71400
O530        O  0.78022501  0.72179100  0.94200484    -0.70800
O531        O  0.90105376  0.70054705  0.98811897    -0.71200
O532        O  0.80162075  0.60113300  0.98812263    -0.71100
O533        O  0.78028088  0.55851097  0.94203187    -0.70900
C534        C  0.88613651  0.61595440  0.86678313     0.80900
C535        C  0.88602775  0.77005488  0.86676204     0.81400
C536        C  0.73185348  0.61593486  0.86678555     0.80300
C537        C  0.78205985  0.72001826  0.97352819     0.80700
C538        C  0.94007716  0.72006962  0.97355808     0.81800
C539        C  0.78208505  0.56212352  0.97355554     0.80900
Zn540      Zn  0.80275908  0.60377194  0.59235182     1.49700
Zn541      Zn  0.89768288  0.69873398  0.59238666     1.49400
Zn542      Zn  0.83433116  0.66707155  0.52638106     1.49100
Zn543      Zn  0.80272853  0.69879220  0.59239042     1.49500
O544        O  0.83436877  0.66709015  0.57551945    -1.80400
O545        O  0.84432698  0.59100771  0.62087498    -0.71000
O546        O  0.94323381  0.72153304  0.55490955    -0.70800
O547        O  0.80121336  0.60080816  0.50879416    -0.70400
O548        O  0.91046952  0.65720898  0.62091953    -0.71000
O549        O  0.77992115  0.55818511  0.55487932    -0.70600
O550        O  0.90060641  0.70021481  0.50881411    -0.71200
O551        O  0.77989107  0.72157771  0.55492259    -0.70600
O552        O  0.91043207  0.75298648  0.62096991    -0.71400
O553        O  0.80118804  0.70023723  0.50882793    -0.70800
O554        O  0.84426272  0.75307180  0.62094525    -0.71200
O555        O  0.74853535  0.65728262  0.62099270    -0.71100
O556        O  0.74856804  0.59109612  0.62097080    -0.70900
C557        C  0.88585174  0.61567166  0.63008581     0.80900
C558        C  0.93962336  0.71973592  0.52338671     0.81400
C559        C  0.78172068  0.56179614  0.52335554     0.80300
C560        C  0.78169578  0.71977538  0.52339778     0.80700
C561        C  0.88579202  0.76990488  0.63015571     0.81800
C562        C  0.73170807  0.61576760  0.63019999     0.80900
C563        C  0.50115199  0.50043466  0.78091524     0.49200
H564        H  0.50108789  0.50040718  0.80860149     0.00200
C565        C  0.50128870  0.50049022  0.71600335     0.49200
H566        H  0.50135325  0.00052084  0.68831709     0.00200
C567        C  0.97709037  0.52454414  0.76544773    -0.13500
C568        C  0.54936206  0.52451982  0.76554528    -0.13300
C569        C  0.97710615  0.95229089  0.76545062    -0.13700
C570        C  0.97715826  0.52457027  0.73140374    -0.13600
C571        C  0.54942675  0.52454400  0.73150191    -0.13200
C572        C  0.97717432  0.95231451  0.73140671    -0.13500
Zn573      Zn  0.66753957  0.83377785  0.37235344     1.49700
Zn574      Zn  0.63570486  0.86577400  0.43716718     1.49400
Zn575      Zn  0.63575037  0.76994383  0.43713976     1.49100
Zn576      Zn  0.73169357  0.86580163  0.43692230     1.49500
O577        O  0.66768257  0.83383174  0.42114185    -1.80400
O578        O  0.63554767  0.86561030  0.35393090    -0.71000
O579        O  0.57915120  0.82274659  0.46407184    -0.70800
O580        O  0.61333652  0.72513366  0.39870746    -0.70400
O581        O  0.61323715  0.88817598  0.39874238    -0.71000
O582        O  0.63559820  0.77000961  0.35391123    -0.70600
O583        O  0.57918047  0.75641191  0.46403259    -0.71200
O584        O  0.74524575  0.82275263  0.46382954    -0.70600
O585        O  0.67880156  0.92229622  0.46404791    -0.71400
O586        O  0.67884017  0.75648576  0.46403223    -0.70800
O587        O  0.74523026  0.92239284  0.46381120    -0.71200
O588        O  0.77636681  0.88811671  0.39832704    -0.71100
O589        O  0.73124214  0.86561797  0.35365968    -0.70900
C590        C  0.61584114  0.88540747  0.36733178     0.80900
C591        C  0.56093245  0.78046072  0.47192251     0.81400
C592        C  0.61592936  0.73052439  0.36729993     0.80300
C593        C  0.72116458  0.78051541  0.47181546     0.80700
C594        C  0.72113935  0.94056651  0.47180580     0.81800
C595        C  0.77082360  0.88537497  0.36692647     0.80900
Zn596      Zn  0.63611827  0.77016784  0.05994077     1.49700
Zn597      Zn  0.66822474  0.83417074  0.12458424     1.47800
Zn598      Zn  0.73196496  0.86604660  0.05972198     1.49100
Zn599      Zn  0.63609112  0.86611719  0.05991981     1.49500
O600        O  0.66809047  0.83412328  0.07579518    -1.80400
O601        O  0.61380393  0.72543424  0.09847378    -0.71000
O602        O  0.73204428  0.86606470  0.14294669    -0.70800
O603        O  0.74544184  0.82298149  0.03282220    -0.70400
O604        O  0.63643816  0.77044946  0.14319167    -0.71000
O605        O  0.67914927  0.75661190  0.03302263    -0.70600
O606        O  0.77685010  0.88847255  0.09810558    -0.71200
O607        O  0.67910422  0.92269025  0.03301265    -0.70600
O608        O  0.63642328  0.86612431  0.14317443    -0.71400
O609        O  0.74542122  0.92257973  0.03283758    -0.70800
O610        O  0.61376805  0.88852890  0.09846022    -0.71200
O611        O  0.57951233  0.82304651  0.03303651    -0.71100
O612        O  0.57954090  0.75669764  0.03305904    -0.70900
C613        C  0.61662940  0.73091128  0.12987833     0.80900
C614        C  0.77151360  0.88580015  0.12951704     0.81400
C615        C  0.72139923  0.78067012  0.02504355     0.80300
C616        C  0.72136522  0.94086260  0.02505292     0.80700
C617        C  0.61660437  0.88586991  0.12986323     0.81800
C618        C  0.56130422  0.78076224  0.02516515     0.80900
C619        C  0.50104228  0.50065134  0.28091396     0.49200
H620        H  0.50089805  0.50058560  0.30860213     0.00200
C621        C  0.50141324  0.50082283  0.21602808     0.49200
H622        H  0.50155853  0.50088581  0.18833987     0.00200
C623        C  0.52522548  0.97660619  0.26556847    -0.13500
C624        C  0.95295631  0.97661442  0.26536911    -0.13300
C625        C  0.52519548  0.54884046  0.26555106    -0.13700
C626        C  0.52543116  0.97670207  0.23151824    -0.13600
C627        C  0.95316422  0.97671303  0.23131867    -0.13200
C628        C  0.52539954  0.54893926  0.23150048    -0.13500
C629        C  0.54594281  0.58979256  0.21122038    -0.14800
C630        C  0.56228093  0.62228955  0.19268337     0.09300
C631        C  0.58091238  0.65942076  0.17016523     0.11100
C632        C  0.59693123  0.69143897  0.15118236    -0.15600
C633        C  0.81107217  0.90558316  0.15070351    -0.14800
C634        C  0.84309594  0.92161010  0.16966538     0.09300
C635        C  0.88012836  0.94015122  0.19223871     0.11100
C636        C  0.91249448  0.95635643  0.21087965    -0.15600
C637        C  0.59691178  0.90565957  0.15117173    -0.14800
C638        C  0.58090989  0.92167242  0.17017014     0.09300
C639        C  0.56230166  0.94018747  0.19270652     0.11100
C640        C  0.54597466  0.95636473  0.21125027    -0.15600
C641        C  0.81026943  0.90510636  0.34557550    -0.14800
C642        C  0.84229079  0.92114795  0.32658166     0.09300
C643        C  0.87946610  0.93978871  0.30408365     0.11100
C644        C  0.91202218  0.95611215  0.28558676    -0.15600
C645        C  0.59614678  0.69101043  0.34607317    -0.14800
C646        C  0.58014004  0.65900393  0.32710009     0.09300
C647        C  0.56164255  0.62196012  0.30453880     0.11100
C648        C  0.54548750  0.58956381  0.28592979    -0.15600
C649        C  0.54549092  0.95612715  0.28595983    -0.14800
C650        C  0.56160460  0.93982707  0.30457578     0.09300
C651        C  0.58005632  0.92120979  0.32714167     0.11100
C652        C  0.59604347  0.90516486  0.34611404    -0.15600
C653        C  0.76089704  0.52009985  0.50399251    -0.09500
C654        C  0.74272965  0.98371544  0.48943166    -0.11100
C655        C  0.98133579  0.74062447  0.50404101    -0.09500
C656        C  0.51775287  0.75886175  0.48951611    -0.11100
C657        C  0.76088861  0.74068966  0.50403835    -0.09500
C658        C  0.74274525  0.75894054  0.48946308    -0.11100
C659        C  0.90532235  0.59624759  0.65195296    -0.14800
C660        C  0.92141320  0.58023038  0.67086705     0.09300
C661        C  0.94026636  0.56145914  0.69295948     0.11100
C662        C  0.95672170  0.54503464  0.71115141    -0.15600
C663        C  0.69291374  0.59636779  0.65213349    -0.14800
C664        C  0.66086539  0.58032773  0.67108177     0.09300
C665        C  0.62326898  0.56150291  0.69317330     0.11100
C666        C  0.59037262  0.54503287  0.71132896    -0.15600
C667        C  0.95671935  0.91142207  0.71116152    -0.14800
C668        C  0.94023817  0.87853314  0.69299206     0.09300
C669        C  0.92135359  0.84088903  0.67092910     0.11100
C670        C  0.90525007  0.80877740  0.65203069    -0.15600
C671        C  0.98178267  0.74096606  0.99292787    -0.09500
C672        C  0.51816021  0.75918712  0.00751379    -0.11100
C673        C  0.76118068  0.52042489  0.99290982    -0.09500
C674        C  0.74293602  0.98402573  0.00744820    -0.11100
C675        C  0.76118663  0.74087001  0.99287761    -0.09500
C676        C  0.74296865  0.75906613  0.00742345    -0.11100
C677        C  0.90553719  0.59650803  0.84487458    -0.14800
C678        C  0.92151344  0.58041176  0.82593107     0.09300
C679        C  0.94023447  0.56152753  0.80382482     0.11100
C680        C  0.95663146  0.54503204  0.78564739    -0.15600
C681        C  0.59024689  0.54499928  0.78581417    -0.14800
C682        C  0.62314730  0.56149517  0.80398369     0.09300
C683        C  0.66081909  0.58038301  0.82603425     0.11100
C684        C  0.69295601  0.59648027  0.84492036    -0.15600
C685        C  0.95661340  0.91138164  0.78565275    -0.14800
C686        C  0.94017065  0.87851093  0.80382554     0.09300
C687        C  0.92140143  0.84092699  0.82592134     0.11100
C688        C  0.90540672  0.80887158  0.84485684    -0.15600
loop_ 
_geom_bond_atom_site_label_1 
_geom_bond_atom_site_label_2 
_geom_bond_distance 
_geom_bond_site_symmetry_2 
_ccdc_geom_bond_type 
Zn1           O5   1.963       .  S
Zn1           O6   2.011       .  S
Zn1          O10   2.011       .  S
Zn1          O17   2.006       .  S
Zn2           O5   1.963       .  S
Zn2           O7   2.011       .  S
Zn2           O9   2.011       .  S
Zn2          O13   2.007       .  S
Zn3           O5   1.963       .  S
Zn3           O8   2.011       .  S
Zn3          O11   2.010       .  S
Zn3          O14   2.006       .  S
Zn4           O5   1.974       .  S
Zn4          O12   2.053       .  S
Zn4          O15   2.054       .  S
Zn4          O16   2.054       .  S
O6           C18   1.270       .  A
O7           C19   1.270       .  A
O8           C20   1.270       .  A
O9           C18   1.270       .  A
O10          C20   1.270       .  A
O11          C19   1.270       .  A
O12          C21   1.277       .  A
O13          C22   1.271       .  A
O14          C21   1.271       .  A
O15          C22   1.277       .  A
O16          C23   1.277       .  A
O17          C23   1.271       .  A
C18         C161   1.432       .  S
C19         C172   1.432       .  S
C20         C168   1.433       .  S
C21         C159   1.441       .  S
C22         C155   1.441       .  S
C23         C157   1.441       .  S
Zn24         O28   1.963       .  S
Zn24         O29   2.011       .  S
Zn24         O33   2.007       .  S
Zn24         O40   2.010       .  S
Zn25         O28   1.963       .  S
Zn25         O30   2.006       .  S
Zn25         O32   2.011       .  S
Zn25         O36   2.011       .  S
Zn26         O28   1.974       .  S
Zn26         O31   2.054       .  S
Zn26         O34   2.053       .  S
Zn26         O37   2.053       .  S
Zn27         O28   1.963       .  S
Zn27         O35   2.007       .  S
Zn27         O38   2.011       .  S
Zn27         O39   2.010       .  S
O29          C41   1.270       .  A
O30          C42   1.271       .  A
O31          C43   1.277       .  A
O32          C41   1.270       .  A
O33          C43   1.271       .  A
O34          C42   1.277       .  A
O35          C44   1.271       .  A
O36          C45   1.270       .  A
O37          C44   1.277       .  A
O38          C45   1.270       .  A
O39          C46   1.270       .  A
O40          C46   1.270       .  A
C41         C143   1.432       .  S
C42         C139   1.441       .  S
C43         C137   1.441       .  S
C44         C141   1.441       .  S
C45         C154   1.432       .  S
C46         C147   1.432       .  S
C47          H48   1.112       .  S
C47          C52   1.533       .  S
C47         C569   1.533   1_445  S
C47         C395   1.533   1_455  S
C49         H222   1.112       .  S
C49          C55   1.533       .  S
C49         C398   1.533   1_455  S
C49         C572   1.533   1_445  S
H50         C221   1.112       .  S
C51         C391   1.533       .  S
C51          C54   1.368       .  D
C51         C164   1.441       .  S
C52          C55   1.368       .  D
C52         C165   1.441       .  S
C53         C563   1.533       .  S
C53          C56   1.368       .  D
C53         C169   1.441       .  S
C54         C393   1.533       .  S
C54         C146   1.441       .  S
C55         C150   1.441       .  S
C56         C565   1.533       .  S
C56         C151   1.441       .  S
Zn57         O61   1.960       .  S
Zn57         O62   1.998       .  S
Zn57         O66   1.998       .  S
Zn57         O73   2.000       .  S
Zn58         O61   1.967       .  S
Zn58         O63   2.030       .  S
Zn58         O65   2.021       .  S
Zn58         O69   2.030       .  S
Zn59         O61   1.967       .  S
Zn59         O64   2.021       .  S
Zn59         O67   2.030       .  S
Zn59         O70   2.030       .  S
Zn60         O61   1.967       .  S
Zn60         O68   2.031       .  S
Zn60         O71   2.031       .  S
Zn60         O72   2.023       .  S
O62          C74   1.269       .  A
O63          C75   1.274       .  A
O64          C76   1.272       .  A
O65          C74   1.272       .  A
O66          C76   1.269       .  A
O67          C75   1.274       .  A
O68          C77   1.274       .  A
O69          C78   1.274       .  A
O70          C77   1.274       .  A
O71          C78   1.274       .  A
O72          C79   1.272       .  A
O73          C79   1.269       .  A
C74         C136   1.432       .  S
C75         C140   1.441       .  S
C76         C129   1.432       .  S
C77         C142   1.441       .  S
C78         C138   1.442       .  S
C79         C125   1.433       .  S
Zn80         O84   1.967       .  S
Zn80         O85   2.023       .  S
Zn80         O89   2.030       .  S
Zn80         O96   2.030       .  S
Zn81         O84   1.960       .  S
Zn81         O86   1.998       .  S
Zn81         O88   1.999       .  S
Zn81         O92   1.999       .  S
Zn82         O84   1.967       .  S
Zn82         O87   2.030       .  S
Zn82         O90   2.021       .  S
Zn82         O93   2.030       .  S
Zn83         O84   1.967       .  S
Zn83         O91   2.031       .  S
Zn83         O94   2.022       .  S
Zn83         O95   2.031       .  S
O85          C97   1.272       .  A
O86          C98   1.269       .  A
O87          C99   1.274       .  A
O88          C97   1.269       .  A
O89          C99   1.274       .  A
O90          C98   1.271       .  A
O91         C100   1.274       .  A
O92         C101   1.269       .  A
O93         C100   1.274       .  A
O94         C101   1.272       .  A
O95         C102   1.274       .  A
O96         C102   1.274       .  A
C97         C116   1.433       .  S
C98         C117   1.431       .  S
C99         C160   1.441       .  S
C100        C158   1.442       .  S
C101        C121   1.432       .  S
C102        C156   1.442       .  S
C103        H104   1.112       .  S
C103        C109   1.532       .  S
C103        C624   1.532   1_445  S
C103        C279   1.532   1_545  S
C105        H106   1.112       .  S
C105        C112   1.532       .  S
C105        C627   1.532   1_445  S
C105        C282   1.532   1_545  S
C107        C275   1.532       .  S
C107        C110   1.368       .  D
C107        C133   1.441       .  S
C108        C619   1.532       .  S
C108        C111   1.368       .  D
C108        C128   1.442       .  S
C109        C112   1.368       .  D
C109        C132   1.440       .  S
C110        C277   1.532       .  S
C110        C124   1.441       .  S
C111        C621   1.532       .  S
C111        C120   1.440       .  S
C112        C113   1.441       .  S
C113        C114   1.204       .  T
C114        C115   1.409       .  S
C115        C116   1.204       .  T
C117        C118   1.203       .  T
C118        C119   1.408       .  S
C119        C120   1.203       .  T
C121        C122   1.204       .  T
C122        C123   1.409       .  S
C123        C124   1.204       .  T
C125        C126   1.204       .  T
C126        C127   1.410       .  S
C127        C128   1.204       .  T
C129        C130   1.204       .  T
C130        C131   1.408       .  S
C131        C132   1.203       .  T
C133        C134   1.203       .  T
C134        C135   1.409       .  S
C135        C136   1.204       .  T
C137        C310   1.210   1_545  T
C138        C309   1.210       .  T
C139        C484   1.210       .  T
C140        C483   1.210   1_455  T
C141        C142   1.210       .  T
C143        C144   1.204       .  T
C144        C145   1.409       .  S
C145        C146   1.204       .  T
C147        C148   1.204       .  T
C148        C149   1.409       .  S
C149        C150   1.203       .  T
C151        C152   1.204       .  T
C152        C153   1.409       .  S
C153        C154   1.204       .  T
C155        C500   1.210   1_556  T
C156        C499   1.210   1_454  T
C157        C330   1.210   1_546  T
C158        C329   1.210   1_554  T
C159        C160   1.210   1_556  T
C161        C162   1.204       .  T
C162        C163   1.409       .  S
C163        C164   1.204       .  T
C165        C166   1.204       .  T
C166        C167   1.409       .  S
C167        C168   1.204       .  T
C169        C170   1.203       .  T
C170        C171   1.409       .  S
C171        C172   1.204       .  T
Zn173       O177   1.963       .  S
Zn173       O178   2.011       .  S
Zn173       O182   2.011       .  S
Zn173       O189   2.006       .  S
Zn174       O177   1.963       .  S
Zn174       O179   2.011       .  S
Zn174       O181   2.011       .  S
Zn174       O185   2.007       .  S
Zn175       O177   1.963       .  S
Zn175       O180   2.011       .  S
Zn175       O183   2.010       .  S
Zn175       O186   2.006       .  S
Zn176       O177   1.974       .  S
Zn176       O184   2.053       .  S
Zn176       O187   2.054       .  S
Zn176       O188   2.054       .  S
O178        C190   1.270       .  A
O179        C191   1.270       .  A
O180        C192   1.270       .  A
O181        C190   1.270       .  A
O182        C192   1.270       .  A
O183        C191   1.270       .  A
O184        C193   1.277       .  A
O185        C194   1.271       .  A
O186        C193   1.271       .  A
O187        C194   1.277       .  A
O188        C195   1.277       .  A
O189        C195   1.271       .  A
C190        C333   1.432       .  S
C191        C344   1.432       .  S
C192        C340   1.433       .  S
C193        C331   1.441       .  S
C194        C327   1.441       .  S
C195        C329   1.441       .  S
Zn196       O200   1.963       .  S
Zn196       O201   2.011       .  S
Zn196       O205   2.007       .  S
Zn196       O212   2.010       .  S
Zn197       O200   1.963       .  S
Zn197       O202   2.006       .  S
Zn197       O204   2.011       .  S
Zn197       O208   2.011       .  S
Zn198       O200   1.974       .  S
Zn198       O203   2.054       .  S
Zn198       O206   2.053       .  S
Zn198       O209   2.053       .  S
Zn199       O200   1.963       .  S
Zn199       O207   2.007       .  S
Zn199       O210   2.011       .  S
Zn199       O211   2.010       .  S
O201        C213   1.270       .  A
O202        C214   1.271       .  A
O203        C215   1.277       .  A
O204        C213   1.270       .  A
O205        C215   1.271       .  A
O206        C214   1.277       .  A
O207        C216   1.271       .  A
O208        C217   1.270       .  A
O209        C216   1.277       .  A
O210        C217   1.270       .  A
O211        C218   1.270       .  A
O212        C218   1.270       .  A
C213        C315   1.432       .  S
C214        C311   1.441       .  S
C215        C309   1.441       .  S
C216        C313   1.441       .  S
C217        C326   1.432       .  S
C218        C319   1.432       .  S
C219        H220   1.112       .  S
C219        C397   1.533   1_455  S
C219        C224   1.533       .  S
C219        C567   1.533   1_455  S
C221        C227   1.533       .  S
C221        C570   1.533   1_455  S
C221        C400   1.533   1_455  S
C223        C563   1.533       .  S
C223        C226   1.368       .  D
C223        C336   1.441       .  S
C224        C227   1.368       .  D
C224        C337   1.441       .  S
C225        C391   1.533   1_565  S
C225        C228   1.368       .  D
C225        C341   1.441       .  S
C226        C565   1.533       .  S
C226        C318   1.441       .  S
C227        C322   1.441       .  S
C228        C393   1.533   1_565  S
C228        C323   1.441       .  S
Zn229       O233   1.960       .  S
Zn229       O234   1.998       .  S
Zn229       O238   1.998       .  S
Zn229       O245   2.000       .  S
Zn230       O233   1.967       .  S
Zn230       O235   2.030       .  S
Zn230       O237   2.021       .  S
Zn230       O241   2.030       .  S
Zn231       O233   1.967       .  S
Zn231       O236   2.021       .  S
Zn231       O239   2.030       .  S
Zn231       O242   2.030       .  S
Zn232       O233   1.967       .  S
Zn232       O240   2.031       .  S
Zn232       O243   2.031       .  S
Zn232       O244   2.023       .  S
O234        C246   1.269       .  A
O235        C247   1.274       .  A
O236        C248   1.272       .  A
O237        C246   1.272       .  A
O238        C248   1.269       .  A
O239        C247   1.274       .  A
O240        C249   1.274       .  A
O241        C250   1.274       .  A
O242        C249   1.274       .  A
O243        C250   1.274       .  A
O244        C251   1.272       .  A
O245        C251   1.269       .  A
C246        C308   1.432       .  S
C247        C312   1.441       .  S
C248        C301   1.432       .  S
C249        C314   1.441       .  S
C250        C310   1.442       .  S
C251        C297   1.433       .  S
Zn252       O256   1.967       .  S
Zn252       O257   2.023       .  S
Zn252       O261   2.030       .  S
Zn252       O268   2.030       .  S
Zn253       O256   1.960       .  S
Zn253       O258   1.998       .  S
Zn253       O260   1.999       .  S
Zn253       O264   1.999       .  S
Zn254       O256   1.967       .  S
Zn254       O259   2.030       .  S
Zn254       O262   2.021       .  S
Zn254       O265   2.030       .  S
Zn255       O256   1.967       .  S
Zn255       O263   2.031       .  S
Zn255       O266   2.022       .  S
Zn255       O267   2.031       .  S
O257        C269   1.272       .  A
O258        C270   1.269       .  A
O259        C271   1.274       .  A
O260        C269   1.269       .  A
O261        C271   1.274       .  A
O262        C270   1.271       .  A
O263        C272   1.274       .  A
O264        C273   1.269       .  A
O265        C272   1.274       .  A
O266        C273   1.272       .  A
O267        C274   1.274       .  A
O268        C274   1.274       .  A
C269        C288   1.433       .  S
C270        C289   1.431       .  S
C271        C332   1.441       .  S
C272        C330   1.442       .  S
C273        C293   1.432       .  S
C274        C328   1.442       .  S
C275        H276   1.112       .  S
C275        C281   1.532       .  S
C275        C452   1.532   1_455  S
C277        H278   1.112       .  S
C277        C455   1.532   1_455  S
C277        C284   1.532       .  S
C279        C282   1.368       .  D
C279        C305   1.441       .  S
C280        C447   1.532   1_565  S
C280        C283   1.368       .  D
C280        C300   1.442       .  S
C281        C284   1.368       .  D
C281        C304   1.440       .  S
C282        C296   1.441       .  S
C283        C449   1.532   1_565  S
C283        C292   1.440       .  S
C284        C285   1.441       .  S
C285        C286   1.204       .  T
C286        C287   1.409       .  S
C287        C288   1.204       .  T
C289        C290   1.203       .  T
C290        C291   1.408       .  S
C291        C292   1.203       .  T
C293        C294   1.204       .  T
C294        C295   1.409       .  S
C295        C296   1.204       .  T
C297        C298   1.204       .  T
C298        C299   1.410       .  S
C299        C300   1.204       .  T
C301        C302   1.204       .  T
C302        C303   1.408       .  S
C303        C304   1.203       .  T
C305        C306   1.203       .  T
C306        C307   1.409       .  S
C307        C308   1.204       .  T
C311        C656   1.210       .  T
C312        C655   1.210   1_455  T
C313        C314   1.210       .  T
C315        C316   1.204       .  T
C316        C317   1.409       .  S
C317        C318   1.204       .  T
C319        C320   1.204       .  T
C320        C321   1.409       .  S
C321        C322   1.203       .  T
C323        C324   1.204       .  T
C324        C325   1.409       .  S
C325        C326   1.204       .  T
C327        C672   1.210   1_556  T
C328        C671   1.210   1_454  T
C331        C332   1.210   1_556  T
C333        C334   1.204       .  T
C334        C335   1.409       .  S
C335        C336   1.204       .  T
C337        C338   1.204       .  T
C338        C339   1.409       .  S
C339        C340   1.204       .  T
C341        C342   1.203       .  T
C342        C343   1.409       .  S
C343        C344   1.204       .  T
Zn345       O349   1.963       .  S
Zn345       O350   2.011       .  S
Zn345       O354   2.011       .  S
Zn345       O361   2.006       .  S
Zn346       O349   1.963       .  S
Zn346       O351   2.011       .  S
Zn346       O353   2.011       .  S
Zn346       O357   2.007       .  S
Zn347       O349   1.963       .  S
Zn347       O352   2.011       .  S
Zn347       O355   2.010       .  S
Zn347       O358   2.006       .  S
Zn348       O349   1.974       .  S
Zn348       O356   2.053       .  S
Zn348       O359   2.054       .  S
Zn348       O360   2.054       .  S
O350        C362   1.270       .  A
O351        C363   1.270       .  A
O352        C364   1.270       .  A
O353        C362   1.270       .  A
O354        C364   1.270       .  A
O355        C363   1.270       .  A
O356        C365   1.277       .  A
O357        C366   1.271       .  A
O358        C365   1.271       .  A
O359        C366   1.277       .  A
O360        C367   1.277       .  A
O361        C367   1.271       .  A
C362        C505   1.432       .  S
C363        C516   1.432       .  S
C364        C512   1.433       .  S
C365        C503   1.441       .  S
C366        C499   1.441       .  S
C367        C501   1.441       .  S
Zn368       O372   1.963       .  S
Zn368       O373   2.011       .  S
Zn368       O377   2.007       .  S
Zn368       O384   2.010       .  S
Zn369       O372   1.963       .  S
Zn369       O374   2.006       .  S
Zn369       O376   2.011       .  S
Zn369       O380   2.011       .  S
Zn370       O372   1.974       .  S
Zn370       O375   2.054       .  S
Zn370       O378   2.053       .  S
Zn370       O381   2.053       .  S
Zn371       O372   1.963       .  S
Zn371       O379   2.007       .  S
Zn371       O382   2.011       .  S
Zn371       O383   2.010       .  S
O373        C385   1.270       .  A
O374        C386   1.271       .  A
O375        C387   1.277       .  A
O376        C385   1.270       .  A
O377        C387   1.271       .  A
O378        C386   1.277       .  A
O379        C388   1.271       .  A
O380        C389   1.270       .  A
O381        C388   1.277       .  A
O382        C389   1.270       .  A
O383        C390   1.270       .  A
O384        C390   1.270       .  A
C385        C487   1.432       .  S
C386        C483   1.441       .  S
C387        C481   1.441       .  S
C388        C485   1.441       .  S
C389        C498   1.432       .  S
C390        C491   1.432       .  S
C391        H392   1.112       .  S
C391        C396   1.533       .  S
C393        H566   1.112       .  S
C393        C399   1.533       .  S
H394        C565   1.112       .  S
C395        C398   1.368       .  D
C395        C508   1.441       .  S
C396        C399   1.368       .  D
C396        C509   1.441       .  S
C397        C400   1.368       .  D
C397        C513   1.441       .  S
C398        C490   1.441       .  S
C399        C494   1.441       .  S
C400        C495   1.441       .  S
Zn401       O405   1.960       .  S
Zn401       O406   1.998       .  S
Zn401       O410   1.998       .  S
Zn401       O417   2.000       .  S
Zn402       O405   1.967       .  S
Zn402       O407   2.030       .  S
Zn402       O409   2.021       .  S
Zn402       O413   2.030       .  S
Zn403       O405   1.967       .  S
Zn403       O408   2.021       .  S
Zn403       O411   2.030       .  S
Zn403       O414   2.030       .  S
Zn404       O405   1.967       .  S
Zn404       O412   2.031       .  S
Zn404       O415   2.031       .  S
Zn404       O416   2.023       .  S
O406        C418   1.269       .  A
O407        C419   1.274       .  A
O408        C420   1.272       .  A
O409        C418   1.272       .  A
O410        C420   1.269       .  A
O411        C419   1.274       .  A
O412        C421   1.274       .  A
O413        C422   1.274       .  A
O414        C421   1.274       .  A
O415        C422   1.274       .  A
O416        C423   1.272       .  A
O417        C423   1.269       .  A
C418        C480   1.432       .  S
C419        C484   1.441       .  S
C420        C473   1.432       .  S
C421        C486   1.441       .  S
C422        C482   1.442       .  S
C423        C469   1.433       .  S
Zn424       O428   1.967       .  S
Zn424       O429   2.023       .  S
Zn424       O433   2.030       .  S
Zn424       O440   2.030       .  S
Zn425       O428   1.960       .  S
Zn425       O430   1.998       .  S
Zn425       O432   1.999       .  S
Zn425       O436   1.999       .  S
Zn426       O428   1.967       .  S
Zn426       O431   2.030       .  S
Zn426       O434   2.021       .  S
Zn426       O437   2.030       .  S
Zn427       O428   1.967       .  S
Zn427       O435   2.031       .  S
Zn427       O438   2.022       .  S
Zn427       O439   2.031       .  S
O429        C441   1.272       .  A
O430        C442   1.269       .  A
O431        C443   1.274       .  A
O432        C441   1.269       .  A
O433        C443   1.274       .  A
O434        C442   1.271       .  A
O435        C444   1.274       .  A
O436        C445   1.269       .  A
O437        C444   1.274       .  A
O438        C445   1.272       .  A
O439        C446   1.274       .  A
O440        C446   1.274       .  A
C441        C460   1.433       .  S
C442        C461   1.431       .  S
C443        C504   1.441       .  S
C444        C502   1.442       .  S
C445        C465   1.432       .  S
C446        C500   1.442       .  S
C447        H448   1.112       .  S
C447        C453   1.532       .  S
C447        C623   1.532   1_545  S
C449        H450   1.112       .  S
C449        C626   1.532   1_545  S
C449        C456   1.532       .  S
C451        C619   1.532       .  S
C451        C454   1.368       .  D
C451        C477   1.441       .  S
C452        C455   1.368       .  D
C452        C472   1.442       .  S
C453        C456   1.368       .  D
C453        C476   1.440       .  S
C454        C621   1.532       .  S
C454        C468   1.441       .  S
C455        C464   1.440       .  S
C456        C457   1.441       .  S
C457        C458   1.204       .  T
C458        C459   1.409       .  S
C459        C460   1.204       .  T
C461        C462   1.203       .  T
C462        C463   1.408       .  S
C463        C464   1.203       .  T
C465        C466   1.204       .  T
C466        C467   1.409       .  S
C467        C468   1.204       .  T
C469        C470   1.204       .  T
C470        C471   1.410       .  S
C471        C472   1.204       .  T
C473        C474   1.204       .  T
C474        C475   1.408       .  S
C475        C476   1.203       .  T
C477        C478   1.203       .  T
C478        C479   1.409       .  S
C479        C480   1.204       .  T
C481        C654   1.210   1_545  T
C482        C653   1.210       .  T
C485        C486   1.210       .  T
C487        C488   1.204       .  T
C488        C489   1.409       .  S
C489        C490   1.204       .  T
C491        C492   1.204       .  T
C492        C493   1.409       .  S
C493        C494   1.203       .  T
C495        C496   1.204       .  T
C496        C497   1.409       .  S
C497        C498   1.204       .  T
C501        C674   1.210   1_546  T
C502        C673   1.210   1_554  T
C503        C504   1.210   1_556  T
C505        C506   1.204       .  T
C506        C507   1.409       .  S
C507        C508   1.204       .  T
C509        C510   1.204       .  T
C510        C511   1.409       .  S
C511        C512   1.204       .  T
C513        C514   1.203       .  T
C514        C515   1.409       .  S
C515        C516   1.204       .  T
Zn517       O521   1.963       .  S
Zn517       O522   2.011       .  S
Zn517       O526   2.011       .  S
Zn517       O533   2.006       .  S
Zn518       O521   1.963       .  S
Zn518       O523   2.011       .  S
Zn518       O525   2.011       .  S
Zn518       O529   2.007       .  S
Zn519       O521   1.963       .  S
Zn519       O524   2.011       .  S
Zn519       O527   2.010       .  S
Zn519       O530   2.006       .  S
Zn520       O521   1.974       .  S
Zn520       O528   2.053       .  S
Zn520       O531   2.054       .  S
Zn520       O532   2.054       .  S
O522        C534   1.270       .  A
O523        C535   1.270       .  A
O524        C536   1.270       .  A
O525        C534   1.270       .  A
O526        C536   1.270       .  A
O527        C535   1.270       .  A
O528        C537   1.277       .  A
O529        C538   1.271       .  A
O530        C537   1.271       .  A
O531        C538   1.277       .  A
O532        C539   1.277       .  A
O533        C539   1.271       .  A
C534        C677   1.432       .  S
C535        C688   1.432       .  S
C536        C684   1.433       .  S
C537        C675   1.441       .  S
C538        C671   1.441       .  S
C539        C673   1.441       .  S
Zn540       O544   1.963       .  S
Zn540       O545   2.011       .  S
Zn540       O549   2.007       .  S
Zn540       O556   2.010       .  S
Zn541       O544   1.963       .  S
Zn541       O546   2.006       .  S
Zn541       O548   2.011       .  S
Zn541       O552   2.011       .  S
Zn542       O544   1.974       .  S
Zn542       O547   2.054       .  S
Zn542       O550   2.053       .  S
Zn542       O553   2.053       .  S
Zn543       O544   1.963       .  S
Zn543       O551   2.007       .  S
Zn543       O554   2.011       .  S
Zn543       O555   2.010       .  S
O545        C557   1.270       .  A
O546        C558   1.271       .  A
O547        C559   1.277       .  A
O548        C557   1.270       .  A
O549        C559   1.271       .  A
O550        C558   1.277       .  A
O551        C560   1.271       .  A
O552        C561   1.270       .  A
O553        C560   1.277       .  A
O554        C561   1.270       .  A
O555        C562   1.270       .  A
O556        C562   1.270       .  A
C557        C659   1.432       .  S
C558        C655   1.441       .  S
C559        C653   1.441       .  S
C560        C657   1.441       .  S
C561        C670   1.432       .  S
C562        C663   1.432       .  S
C563        H564   1.112       .  S
C563        C568   1.533       .  S
C565        C571   1.533       .  S
C567        C570   1.368       .  D
C567        C680   1.441       .  S
C568        C571   1.368       .  D
C568        C681   1.441       .  S
C569        C572   1.368       .  D
C569        C685   1.441       .  S
C570        C662   1.441       .  S
C571        C666   1.441       .  S
C572        C667   1.441       .  S
Zn573       O577   1.960       .  S
Zn573       O578   1.998       .  S
Zn573       O582   1.998       .  S
Zn573       O589   2.000       .  S
Zn574       O577   1.967       .  S
Zn574       O579   2.030       .  S
Zn574       O581   2.021       .  S
Zn574       O585   2.030       .  S
Zn575       O577   1.967       .  S
Zn575       O580   2.021       .  S
Zn575       O583   2.030       .  S
Zn575       O586   2.030       .  S
Zn576       O577   1.967       .  S
Zn576       O584   2.031       .  S
Zn576       O587   2.031       .  S
Zn576       O588   2.023       .  S
O578        C590   1.269       .  A
O579        C591   1.274       .  A
O580        C592   1.272       .  A
O581        C590   1.272       .  A
O582        C592   1.269       .  A
O583        C591   1.274       .  A
O584        C593   1.274       .  A
O585        C594   1.274       .  A
O586        C593   1.274       .  A
O587        C594   1.274       .  A
O588        C595   1.272       .  A
O589        C595   1.269       .  A
C590        C652   1.432       .  S
C591        C656   1.441       .  S
C592        C645   1.432       .  S
C593        C658   1.441       .  S
C594        C654   1.442       .  S
C595        C641   1.433       .  S
Zn596       O600   1.967       .  S
Zn596       O601   2.023       .  S
Zn596       O605   2.030       .  S
Zn596       O612   2.030       .  S
Zn597       O600   1.960       .  S
Zn597       O602   1.998       .  S
Zn597       O604   1.999       .  S
Zn597       O608   1.999       .  S
Zn598       O600   1.967       .  S
Zn598       O603   2.030       .  S
Zn598       O606   2.021       .  S
Zn598       O609   2.030       .  S
Zn599       O600   1.967       .  S
Zn599       O607   2.031       .  S
Zn599       O610   2.022       .  S
Zn599       O611   2.031       .  S
O601        C613   1.272       .  A
O602        C614   1.269       .  A
O603        C615   1.274       .  A
O604        C613   1.269       .  A
O605        C615   1.274       .  A
O606        C614   1.271       .  A
O607        C616   1.274       .  A
O608        C617   1.269       .  A
O609        C616   1.274       .  A
O610        C617   1.272       .  A
O611        C618   1.274       .  A
O612        C618   1.274       .  A
C613        C632   1.433       .  S
C614        C633   1.431       .  S
C615        C676   1.441       .  S
C616        C674   1.442       .  S
C617        C637   1.432       .  S
C618        C672   1.442       .  S
C619        H620   1.112       .  S
C619        C625   1.532       .  S
C621        H622   1.112       .  S
C621        C628   1.532       .  S
C623        C626   1.368       .  D
C623        C649   1.441       .  S
C624        C627   1.368       .  D
C624        C644   1.442       .  S
C625        C628   1.368       .  D
C625        C648   1.440       .  S
C626        C640   1.441       .  S
C627        C636   1.440       .  S
C628        C629   1.441       .  S
C629        C630   1.204       .  T
C630        C631   1.409       .  S
C631        C632   1.204       .  T
C633        C634   1.203       .  T
C634        C635   1.408       .  S
C635        C636   1.203       .  T
C637        C638   1.204       .  T
C638        C639   1.409       .  S
C639        C640   1.204       .  T
C641        C642   1.204       .  T
C642        C643   1.410       .  S
C643        C644   1.204       .  T
C645        C646   1.204       .  T
C646        C647   1.408       .  S
C647        C648   1.203       .  T
C649        C650   1.203       .  T
C650        C651   1.409       .  S
C651        C652   1.204       .  T
C657        C658   1.210       .  T
C659        C660   1.204       .  T
C660        C661   1.409       .  S
C661        C662   1.204       .  T
C663        C664   1.204       .  T
C664        C665   1.409       .  S
C665        C666   1.203       .  T
C667        C668   1.204       .  T
C668        C669   1.409       .  S
C669        C670   1.204       .  T
C675        C676   1.210   1_556  T
C677        C678   1.204       .  T
C678        C679   1.409       .  S
C679        C680   1.204       .  T
C681        C682   1.204       .  T
C682        C683   1.409       .  S
C683        C684   1.204       .  T
C685        C686   1.203       .  T
C686        C687   1.409       .  S
C687        C688   1.204       .  T
