geometry optimzed in LAMMPS
_audit_creation_date              2020-12-01 
_audit_creation_method            'lammps2cif' 
_symmetry_space_group_name_H-M    'P1' 
_symmetry_Int_Tables_number       1 
_symmetry_cell_setting            triclinic 
loop_ 
_symmetry_equiv_pos_as_xyz 
  x,y,z 
_cell_length_a                    30.85937776 
_cell_length_b                    30.830753446895898 
_cell_length_c                    33.85367780598198 
_cell_angle_alpha                 90.11784653361514 
_cell_angle_beta                  90.22709530744167 
_cell_angle_gamma                 120.45419944920117 
loop_ 
_atom_site_label 
_atom_site_type_symbol 
_atom_site_fract_x 
_atom_site_fract_y 
_atom_site_fract_z 
_atom_site_charge 
Fe1        Fe  0.27689017  0.68259165  0.25137356     1.65800
Fe2        Fe  0.31579603  0.59653473  0.25017378     1.73200
Fe3        Fe  0.40253391  0.72212180  0.24798862     1.54400
O4          O  0.38824861  0.76162848  0.20600011    -0.81400
O5          O  0.36638671  0.60907142  0.29423580    -0.79700
O6          O  0.30640793  0.73416267  0.20650054    -0.83900
O7          O  0.31250469  0.73887456  0.29335828    -0.78700
O8          O  0.42032947  0.68981600  0.20229926    -0.80500
O9          O  0.26093481  0.57411671  0.29244440    -0.83200
C10         C  0.35733201  0.76625799  0.30587077     0.97500
C11         C  0.35003438  0.76231405  0.19285525     1.05000
O12         O  0.33173991  0.66716105  0.25002750    -1.12200
O13         O  0.26389352  0.57627925  0.20612770    -0.74700
O14         O  0.23472395  0.62882519  0.20919693    -0.78100
O15         O  0.39345183  0.76193166  0.29286552    -0.78800
C16         C  0.23459780  0.59092211  0.19425587     0.96400
O17         O  0.23952728  0.63263387  0.29612151    -0.76800
O18         O  0.36735326  0.60769608  0.20725488    -0.82000
C19         C  0.40835061  0.64604208  0.30491883     0.99000
C20         C  0.40425873  0.64500633  0.19096314     1.05000
O21         O  0.42632234  0.68942880  0.28974185    -0.77600
C22         C  0.23483094  0.59115822  0.30706385     1.03300
Fe23       Fe  0.68250860  0.28074596  0.24864086     1.65800
Fe24       Fe  0.59579989  0.31818972  0.24971672     1.73200
Fe25       Fe  0.72115517  0.40641107  0.24960550     1.54400
O26         O  0.76369343  0.39465611  0.29054175    -0.81400
O27         O  0.60630197  0.36713713  0.20482519    -0.79700
O28         O  0.73489973  0.31267614  0.29231176    -0.83900
O29         O  0.73678813  0.31515945  0.20586451    -0.78700
O30         O  0.69073110  0.42501333  0.29597814    -0.80500
O31         O  0.57249899  0.26158727  0.20815799    -0.83200
C32         C  0.76230202  0.35904675  0.19156813     0.97500
C33         C  0.76424595  0.35682034  0.30455204     1.05000
O34         O  0.66653906  0.33513582  0.24911813    -1.12200
O35         O  0.57735696  0.26775324  0.29479609    -0.74700
O36         O  0.63096414  0.23992712  0.29208784    -0.78100
O37         O  0.75835659  0.39582969  0.20379276    -0.78800
C38         C  0.59337733  0.23979574  0.30736062     0.96400
O39         O  0.63171484  0.24113154  0.20487567    -0.76800
O40         O  0.60860818  0.37144859  0.29201859    -0.82000
C41         C  0.64222959  0.40952743  0.19411316     0.99000
C42         C  0.64632571  0.40889384  0.30792579     1.05000
O43         O  0.68612688  0.42858820  0.20876475    -0.77600
C44         C  0.58983644  0.23533477  0.19407157     1.03300
N45         N  0.07495573  0.47585716  0.49902470    -0.36300
N46         N  0.00094778  0.43710933  0.05896735    -0.56900
N47         N  0.91988628  0.39639521  0.50115862    -0.36300
N48         N  0.99639130  0.43334520  0.44030279    -0.56900
C49         C  0.10597937  0.49556620  0.02968339     0.27300
C50         C  0.10143080  0.49886860  0.46621737     0.27300
C51         C  0.89674281  0.39992318  0.03265974     0.27300
C52         C  0.89199759  0.39242302  0.46902527     0.27300
C53         C  0.04176851  0.45015193  0.08159488     0.35900
C54         C  0.96091659  0.41394803  0.08309995     0.35900
C55         C  0.03613799  0.44724170  0.41646241     0.35900
C56         C  0.95517713  0.40662079  0.41766760     0.35900
C57         C  0.15246225  0.53450148  0.01768183    -0.21600
C58         C  0.14728659  0.54029769  0.47679186    -0.21600
C59         C  0.85215966  0.39707282  0.02121282    -0.21600
C60         C  0.84622959  0.38640016  0.48071764    -0.21600
C61         C  0.02759252  0.43461150  0.12021906    -0.22600
C62         C  0.97619607  0.41159791  0.12115893    -0.22600
C63         C  0.02019462  0.42871213  0.37859120    -0.22600
C64         C  0.96871111  0.40284082  0.37935684    -0.22600
C65         C  0.09147445  0.48296464  0.06942550    -0.18000
C66         C  0.08590764  0.48255461  0.42705898    -0.18000
C67         C  0.90624059  0.39271722  0.42947815    -0.18000
C68         C  0.91170893  0.40070137  0.07212446    -0.18000
H69         H  0.18367160  0.56036061  0.03621532     0.14900
H70         H  0.17699662  0.56604237  0.45738751     0.14900
H71         H  0.82351923  0.39625803  0.04007995     0.14900
H72         H  0.81563201  0.38174870  0.46199017     0.14900
H73         H  0.05192348  0.44126631  0.14542097     0.13200
H74         H  0.95293801  0.39674787  0.14713475     0.13200
H75         H  0.04319707  0.43514373  0.35274959     0.13200
H76         H  0.94407723  0.38532472  0.35419700     0.13200
H77         H  0.04210074  0.44123887  0.50024076     0.26500
H78         H  0.95332048  0.39608830  0.50134677     0.26500
N79         N  0.60565798  0.52888887  0.50178597    -0.36300
N80         N  0.56326976  0.56221483  0.43982349    -0.56900
N81         N  0.52561855  0.60307208  0.49769275    -0.36300
N82         N  0.56163805  0.56535301  0.05928033    -0.56900
C83         C  0.60630950  0.50199339  0.47046776     0.27300
C84         C  0.60545797  0.50456552  0.03364503     0.27300
C85         C  0.49984610  0.60306330  0.46527163     0.27300
C86         C  0.49612443  0.60188073  0.02917485     0.27300
C87         C  0.58987242  0.54765544  0.41759492     0.35900
C88         C  0.54830733  0.58675030  0.41537348     0.35900
C89         C  0.58893103  0.55331832  0.08332713     0.35900
C90         C  0.54627685  0.59138111  0.08152418     0.35900
C91         C  0.60957080  0.46110411  0.48346421    -0.21600
C92         C  0.60861290  0.46291238  0.02258735    -0.21600
C93         C  0.45816547  0.60585363  0.47648695    -0.21600
C94         C  0.45349815  0.60190475  0.01605466    -0.21600
C95         C  0.59224486  0.56341081  0.37891378    -0.22600
C96         C  0.56582341  0.58822520  0.37751007    -0.22600
C97         C  0.59158548  0.57236906  0.12092510    -0.22600
C98         C  0.56468187  0.59674330  0.11974629    -0.22600
C99         C  0.60550638  0.51423708  0.43046705    -0.18000
C100        C  0.60530578  0.51964984  0.07297130    -0.18000
C101        C  0.50992383  0.60345923  0.06916279    -0.18000
C102        C  0.51400227  0.60215720  0.42586866    -0.18000
H103        H  0.61089283  0.43264852  0.46559512     0.14900
H104        H  0.61029611  0.43573695  0.04174692     0.14900
H105        H  0.43038102  0.60674577  0.45743223     0.14900
H106        H  0.42434019  0.60172553  0.03383875     0.14900
H107        H  0.60949216  0.55601304  0.35401478     0.13200
H108        H  0.55870060  0.60386468  0.35136878     0.13200
H109        H  0.60938756  0.56751300  0.14679960     0.13200
H110        H  0.55749895  0.61432794  0.14458421     0.13200
H111        H  0.60828628  0.56378818  0.50065078     0.26500
H112        H  0.56075888  0.60650526  0.49812400     0.26500
N113        N  0.39211320  0.92475253  0.49895102    -0.36300
N114        N  0.42500016  0.99810839  0.06023013    -0.56900
N115        N  0.46934857  0.08067684  0.50167442    -0.36300
N116        N  0.43573373  0.00448300  0.44054497    -0.56900
C117        C  0.38949413  0.89565078  0.03155455     0.27300
C118        C  0.39179406  0.89886351  0.46658734     0.27300
C119        C  0.49079624  0.10319835  0.03477126     0.27300
C120        C  0.49576914  0.10925134  0.47065830     0.27300
C121        C  0.39823680  0.95693274  0.08269540     0.35900
C122        C  0.43877836  0.03813428  0.08405001     0.35900
C123        C  0.41039015  0.96444957  0.41631110     0.35900
C124        C  0.45143143  0.04568467  0.41785437     0.35900
C125        C  0.39106666  0.85335089  0.01985951    -0.21600
C126        C  0.38747510  0.85362109  0.47785810    -0.21600
C127        C  0.53329596  0.14815864  0.02444695    -0.21600
C128        C  0.53455228  0.15528595  0.48403959    -0.21600
C129        C  0.39393654  0.97079759  0.12080531    -0.22600
C130        C  0.41985986  0.02243891  0.12169659    -0.22600
C131        C  0.40941855  0.98022101  0.37818655    -0.22600
C132        C  0.43559586  0.03182369  0.37914869    -0.22600
C133        C  0.38581980  0.90811540  0.07099347    -0.18000
C134        C  0.39403094  0.91439875  0.42709479    -0.18000
C135        C  0.48506671  0.09523758  0.43058807    -0.18000
C136        C  0.47466157  0.08779973  0.07382347    -0.18000
H137        H  0.39047651  0.82463197  0.03856968     0.14900
H138        H  0.38602327  0.82462064  0.45886821     0.14900
H139        H  0.56041099  0.17699223  0.04408681     0.14900
H140        H  0.56196937  0.18637690  0.46649480     0.14900
H141        H  0.37652433  0.94632554  0.14584323     0.13200
H142        H  0.42626104  0.04573621  0.14752583     0.13200
H143        H  0.39312349  0.95696893  0.35215964     0.13200
H144        H  0.44348560  0.05635744  0.35403705     0.13200
H145        H  0.39000866  0.95740614  0.49909883     0.26500
H146        H  0.43557674  0.04669251  0.50035314     0.26500
C147        C  0.50171135  0.12402390  0.10606368     0.00200
C148        C  0.54155001  0.12264136  0.12454114    -0.11700
C149        C  0.56995101  0.15745791  0.15392765     0.02400
C150        C  0.55968679  0.19606105  0.16414698     0.00100
C151        C  0.51840584  0.19603119  0.14618037    -0.11700
C152        C  0.48906387  0.15991943  0.11773806     0.02300
H153        H  0.55015724  0.09387226  0.11606136     0.15300
H154        H  0.50877677  0.22411778  0.15437108     0.15300
C155        C  0.44539697  0.15934755  0.10165393     0.36900
C156        C  0.60740138  0.15057599  0.17406076     0.36800
N157        N  0.40995500  0.15833801  0.08912173    -0.43400
N158        N  0.63687250  0.14438763  0.19034610    -0.43400
C159        C  0.56668324  0.20493831  0.34065415     0.00200
C160        C  0.58016132  0.16909580  0.35107145    -0.11700
C161        C  0.55469766  0.13400752  0.38084406     0.02400
C162        C  0.51416300  0.13345595  0.40018643     0.00100
C163        C  0.50142461  0.16978894  0.39107564    -0.11700
C164        C  0.52761507  0.20590054  0.36206787     0.02300
H165        H  0.61060709  0.16821240  0.33594188     0.15300
H166        H  0.47103861  0.17001041  0.40691081     0.15300
C167        C  0.51416438  0.24400520  0.35612389     0.36900
C168        C  0.57125697  0.09944249  0.39181612     0.36800
N169        N  0.50360371  0.27473745  0.35167703    -0.43400
N170        N  0.58444203  0.07185287  0.40111965    -0.43400
C171        C  0.80051629  0.36463970  0.33651528     0.00200
C172        C  0.83581589  0.41429139  0.34781135    -0.11700
C173        C  0.87037441  0.42393340  0.37801435     0.02400
C174        C  0.86939642  0.38355567  0.39804643     0.00100
C175        C  0.83496198  0.33410990  0.38700596    -0.11700
C176        C  0.80104005  0.32412832  0.35612493     0.02300
H177        H  0.83691808  0.44590087  0.33286052     0.15300
H178        H  0.83534585  0.30331641  0.40214517     0.15300
C179        C  0.76839638  0.27199973  0.34517094     0.36900
C180        C  0.90714935  0.47550031  0.38763987     0.36800
N181        N  0.74266112  0.23022271  0.33627607    -0.43400
N182        N  0.93697978  0.51670272  0.39526571    -0.43400
C183        C  0.87450471  0.39028262  0.10353349     0.00200
C184        C  0.83558946  0.34073145  0.10915213    -0.11700
C185        C  0.79805117  0.32951193  0.13699053     0.02400
C186        C  0.79965815  0.36855770  0.16030110     0.00100
C187        C  0.83895727  0.41833227  0.15427865    -0.11700
C188        C  0.87587990  0.42943640  0.12595011     0.02300
H189        H  0.83414975  0.31087029  0.09114363     0.15300
H190        H  0.84097721  0.44887044  0.17169547     0.15300
C191        C  0.91374503  0.48137506  0.11932311     0.36900
C192        C  0.75761235  0.27794542  0.13960494     0.36800
N193        N  0.94381106  0.52301261  0.11376810    -0.43400
N194        N  0.72520994  0.23657023  0.14140130    -0.43400
C195        C  0.61624728  0.49372590  0.10501405     0.00200
C196        C  0.57599724  0.45754463  0.12718392    -0.11700
C197        C  0.58347838  0.42991695  0.15629032     0.02400
C198        C  0.63240197  0.43813929  0.16356264     0.00100
C199        C  0.67285189  0.47515371  0.14153157    -0.11700
C200        C  0.66508175  0.50267329  0.11231183     0.02300
H201        H  0.53839961  0.45068641  0.12145705     0.15300
H202        H  0.71059318  0.48221942  0.14672954     0.15300
C203        C  0.70759498  0.53971628  0.09008506     0.36900
C204        C  0.54021422  0.39452722  0.17876562     0.36800
N205        N  0.74171089  0.56930836  0.07224203    -0.43400
N206        N  0.50554860  0.36621145  0.19678875    -0.43400
C207        C  0.63728271  0.43499744  0.34109692     0.00200
C208        C  0.58749902  0.42291223  0.34846972    -0.11700
C209        C  0.57664442  0.44759944  0.37792852     0.02400
C210        C  0.61596344  0.48613134  0.40011926     0.00100
C211        C  0.66542285  0.49730704  0.39417260    -0.11700
C212        C  0.67642391  0.47171509  0.36534586     0.02300
H213        H  0.55665647  0.39414751  0.33110960     0.15300
H214        H  0.69539886  0.52592455  0.41230540     0.15300
C215        C  0.72780037  0.48296389  0.36254770     0.36900
C216        C  0.52477489  0.43210257  0.38561786     0.36800
N217        N  0.76894593  0.49182208  0.36069547    -0.43400
N218        N  0.48330565  0.41961712  0.39220281    -0.43400
C219        C  0.12894632  0.51124649  0.10060313     0.00200
C220        C  0.16223415  0.49556294  0.11227112    -0.11700
C221        C  0.19689993  0.52050967  0.14269300     0.02400
C222        C  0.19872420  0.56262398  0.16174492     0.00100
C223        C  0.16497393  0.57800829  0.14948670    -0.11700
C224        C  0.13024054  0.55264755  0.11931304     0.02300
H225        H  0.16062000  0.46332817  0.09781325     0.15300
H226        H  0.16528457  0.60975838  0.16360145     0.15300
C227        C  0.09586264  0.56935667  0.10807937     0.36900
C228        C  0.22934315  0.50126275  0.15350792     0.36800
N229        N  0.06806086  0.58236045  0.09897661    -0.43400
N230        N  0.25519098  0.48569131  0.16218931    -0.43400
C231        C  0.19638995  0.56139553  0.33744172     0.00200
C232        C  0.16552982  0.57971043  0.35103416    -0.11700
C233        C  0.12829443  0.55346434  0.37901952     0.02400
C234        C  0.12231957  0.50878088  0.39506174     0.00100
C235        C  0.15168089  0.48932599  0.38125566    -0.11700
C236        C  0.18793184  0.51454597  0.35212055     0.02300
H237        H  0.16992666  0.61451064  0.33954694     0.15300
H238        H  0.14593375  0.45414980  0.39314822     0.15300
C239        C  0.21447978  0.49041825  0.33758471     0.36900
C240        C  0.09631270  0.57283063  0.39072775     0.36800
N241        N  0.23514600  0.47052559  0.32578829    -0.43400
N242        N  0.07040731  0.58809730  0.39986234    -0.43400
C243        C  0.43005953  0.63512508  0.15820880     0.00200
C244        C  0.42468077  0.58708588  0.15539347    -0.11700
C245        C  0.44971920  0.57607255  0.12635944     0.02400
C246        C  0.48171537  0.61370318  0.09971866     0.00100
C247        C  0.48602055  0.66119466  0.10142321    -0.11700
C248        C  0.46018908  0.67208978  0.13006040     0.02300
H249        H  0.40118766  0.55794137  0.17621348     0.15300
H250        H  0.50949533  0.68970628  0.08016426     0.15300
C251        C  0.46395775  0.72073284  0.12883553     0.36900
C252        C  0.44163438  0.52568632  0.12413561     0.36800
N253        N  0.46666268  0.75955828  0.12777424    -0.43400
N254        N  0.43543651  0.48544478  0.12219373    -0.43400
C255        C  0.43726155  0.63678603  0.33570043     0.00200
C256        C  0.42393205  0.58659338  0.34317544    -0.11700
C257        C  0.44915846  0.57486804  0.37164721     0.02400
C258        C  0.48817520  0.61359262  0.39397492     0.00100
C259        C  0.50211672  0.66373575  0.38667329    -0.11700
C260        C  0.47761506  0.67576607  0.35746134     0.02300
H261        H  0.39387284  0.55606415  0.32643556     0.15300
H262        H  0.53240312  0.69352486  0.40380013     0.15300
C263        C  0.49481269  0.72825545  0.35075666     0.36900
C264        C  0.43425205  0.52274380  0.37744674     0.36800
N265        N  0.50894214  0.77035665  0.34512554    -0.43400
N266        N  0.42235860  0.48093608  0.38173087    -0.43400
C267        C  0.37628459  0.87066503  0.10217361     0.00200
C268        C  0.32740017  0.83042879  0.10802654    -0.11700
C269        C  0.31756812  0.79423742  0.13703048     0.02400
C270        C  0.35745401  0.79845877  0.16094638     0.00100
C271        C  0.40641358  0.83887618  0.15445551    -0.11700
C272        C  0.41605670  0.87449830  0.12531076     0.02300
H273        H  0.29698679  0.82721616  0.08969402     0.15300
H274        H  0.43756159  0.84293153  0.17225587     0.15300
C275        C  0.46730428  0.91421843  0.11905751     0.36900
C276        C  0.26660267  0.75270914  0.14050090     0.36800
N277        N  0.50834735  0.94597866  0.11389036    -0.43400
N278        N  0.22576360  0.71941180  0.14314016    -0.43400
C279        C  0.38381397  0.87728346  0.39522876     0.00200
C280        C  0.42443737  0.88065611  0.37436276    -0.13900
C281        C  0.41699567  0.84554046  0.34500343     0.02400
C282        C  0.36772966  0.80513214  0.33658984     0.00100
C283        C  0.32704095  0.80273318  0.35732321    -0.11700
C284        C  0.33474687  0.83847478  0.38626609     0.02300
H285        H  0.46218737  0.91107603  0.38107390     0.15300
H286        H  0.28896176  0.77280805  0.35104949     0.15300
C287        C  0.29187437  0.83521904  0.40610294     0.36900
C288        C  0.46069734  0.85350999  0.32339913     0.36800
N289        N  0.25767583  0.83298237  0.42200071    -0.43400
N290        N  0.49591959  0.86044100  0.30611273    -0.43400
Fe291      Fe  0.28200787  0.68572465  0.75007941     1.65800
Fe292      Fe  0.31873661  0.59840647  0.74825191     1.73200
Fe293      Fe  0.40683422  0.72390362  0.74706848     1.54400
O294        O  0.39407125  0.75904857  0.70064672    -0.81400
O295        O  0.37350506  0.61152599  0.78914071    -0.79700
O296        O  0.31593128  0.74287520  0.70939422    -0.83900
O297        O  0.31459479  0.73517017  0.79644950    -0.78700
O298        O  0.42752380  0.68862693  0.70609157    -0.80500
O299        O  0.26853982  0.57821169  0.79418867    -0.83200
C300        C  0.35996168  0.76680360  0.80517297     0.97500
C301        C  0.35755240  0.76499893  0.69141978     1.05000
O302        O  0.33588111  0.66929214  0.74863707    -1.12200
O303        O  0.26220496  0.57697514  0.70705923    -0.74700
O304        O  0.24462622  0.63845777  0.70366782    -0.78100
O305        O  0.39658251  0.76759661  0.78770357    -0.78800
C306        C  0.23909069  0.59697057  0.69161938     0.96400
O307        O  0.23927647  0.63054510  0.79058775    -0.76800
O308        O  0.36608628  0.60894117  0.70209372    -0.82000
C309        C  0.41167339  0.64934013  0.80433476     0.99000
C310        C  0.40760093  0.64535778  0.69047071     1.05000
O311        O  0.42715296  0.69406779  0.79309252    -0.77600
C312        C  0.23858419  0.59244184  0.80542147     1.03300
Fe313      Fe  0.67958368  0.27913458  0.75122384     1.65800
Fe314      Fe  0.59493701  0.31877304  0.75129351     1.73200
Fe315      Fe  0.72003059  0.40416415  0.75028049     1.54400
O316        O  0.76414315  0.39077728  0.78850242    -0.81400
O317        O  0.60586100  0.36421783  0.70343360    -0.79700
O318        O  0.72712335  0.30856405  0.79840584    -0.83900
O319        O  0.73853833  0.31422587  0.71167934    -0.78700
O320        O  0.69267804  0.42293409  0.79870968    -0.80500
O321        O  0.57000402  0.25831080  0.71295200    -0.83200
C322        C  0.76013153  0.35592960  0.69352397     0.97500
C323        C  0.76062058  0.35317273  0.80671932     1.05000
O324        O  0.66481416  0.33401150  0.75085066    -1.12200
O325        O  0.57712799  0.27233566  0.79939288    -0.74700
O326        O  0.62311475  0.23636995  0.79094269    -0.78100
O327        O  0.75235291  0.39151150  0.70208392    -0.78800
C328        C  0.58886473  0.23985369  0.80881571     0.96400
O329        O  0.63316175  0.24419922  0.70428784    -0.76800
O330        O  0.61006299  0.37646153  0.79011417    -0.82000
C331        C  0.64122468  0.40813827  0.69510724     0.99000
C332        C  0.64827466  0.41105342  0.80804550     1.05000
O333        O  0.68391060  0.42809263  0.71200773    -0.77600
C334        C  0.58943542  0.23543424  0.69606480     1.03300
N335        N  0.07743368  0.47166536  0.99769209    -0.36300
N336        N  0.99878903  0.44134010  0.56007435    -0.56900
N337        N  0.92227530  0.39969852  0.00043639    -0.36300
N338        N  0.99842834  0.43673210  0.93915736    -0.56900
C339        C  0.10302188  0.50295559  0.53028112     0.27300
C340        C  0.10455071  0.49607109  0.96546355     0.27300
C341        C  0.89294825  0.39442712  0.53315474     0.27300
C342        C  0.89489164  0.39767970  0.96862188     0.27300
C343        C  0.04018172  0.45789877  0.58294450     0.35900
C344        C  0.95892930  0.41574928  0.58409123     0.35900
C345        C  0.03795686  0.45068307  0.91495745     0.35900
C346        C  0.95685880  0.41061104  0.91664784     0.35900
C347        C  0.14827004  0.54291174  0.51729876    -0.21600
C348        C  0.15152423  0.53487157  0.97711356    -0.21600
C349        C  0.84676171  0.38749553  0.52129031    -0.21600
C350        C  0.85092967  0.39553831  0.98067633    -0.21600
C351        C  0.02661135  0.44260021  0.62165115    -0.22600
C352        C  0.97501149  0.41588738  0.62238233    -0.22600
C353        C  0.02150213  0.43313867  0.87696504    -0.22600
C354        C  0.96998683  0.40748869  0.87806152    -0.22600
C355        C  0.08962388  0.49140341  0.57023990    -0.18000
C356        C  0.08840075  0.48379963  0.92580820    -0.18000
C357        C  0.90789329  0.39623575  0.92904075    -0.18000
C358        C  0.90858144  0.39760283  0.57276460    -0.18000
H359        H  0.17883640  0.57108424  0.53513568     0.14900
H360        H  0.18184802  0.56110471  0.95838290     0.14900
H361        H  0.81670726  0.38399753  0.53988509     0.14900
H362        H  0.82117818  0.39336782  0.96219845     0.14900
H363        H  0.05130657  0.45110851  0.64690343     0.13200
H364        H  0.95195431  0.39969138  0.64829280     0.13200
H365        H  0.04426127  0.43950474  0.85098021     0.13200
H366        H  0.94506530  0.39038791  0.85299109     0.13200
H367        H  0.04283642  0.43817112  0.99792487     0.26500
H368        H  0.95410638  0.39607600  0.00007389     0.26500
N369        N  0.60444451  0.52940501  0.00114083    -0.36300
N370        N  0.56466869  0.56485610  0.93970085    -0.56900
N371        N  0.52343027  0.60231695  0.99790401    -0.36300
N372        N  0.56587852  0.56780075  0.55957144    -0.56900
C373        C  0.60614557  0.50351288  0.96951136     0.27300
C374        C  0.60748903  0.50490094  0.53462933     0.27300
C375        C  0.49838546  0.60216005  0.96502816     0.27300
C376        C  0.50018280  0.60488771  0.52943433     0.27300
C377        C  0.59265915  0.55192105  0.91759390     0.35900
C378        C  0.55125852  0.59117659  0.91590941     0.35900
C379        C  0.59241609  0.55511622  0.58389079     0.35900
C380        C  0.55076295  0.59410259  0.58165009     0.35900
C381        C  0.60903962  0.46224449  0.98200214    -0.21600
C382        C  0.61027510  0.46291873  0.52402351    -0.21600
C383        C  0.45494246  0.60210952  0.97547000    -0.21600
C384        C  0.45830795  0.60689561  0.51707551    -0.21600
C385        C  0.59771036  0.57065015  0.87966168    -0.22600
C386        C  0.57163781  0.59588263  0.87864960    -0.22600
C387        C  0.59504556  0.57423997  0.62145174    -0.22600
C388        C  0.56858447  0.59902155  0.62003756    -0.22600
C389        C  0.60713852  0.51744241  0.92976901    -0.18000
C390        C  0.60771321  0.52054306  0.57388766    -0.18000
C391        C  0.51484226  0.60661576  0.56918772    -0.18000
C392        C  0.51501046  0.60420365  0.92596036    -0.18000
H393        H  0.61119047  0.43450517  0.96379105     0.14900
H394        H  0.61221215  0.43611826  0.54346421     0.14900
H395        H  0.42711364  0.60210449  0.95590395     0.14900
H396        H  0.43067332  0.60887261  0.53537737     0.14900
H397        H  0.61652931  0.56501148  0.85497238     0.13200
H398        H  0.56624118  0.61352199  0.85297577     0.13200
H399        H  0.61227549  0.56893610  0.64749347     0.13200
H400        H  0.56125265  0.61656455  0.64482777     0.13200
H401        H  0.60725843  0.56442501  0.00064410     0.26500
H402        H  0.55944928  0.60757358  0.99894312     0.26500
N403        N  0.39091058  0.92238396  0.99948156    -0.36300
N404        N  0.42878511  0.00088229  0.56018059    -0.56900
N405        N  0.46633317  0.07757541  0.00181892    -0.36300
N406        N  0.43261656  0.00173905  0.94104585    -0.56900
C407        C  0.38943387  0.89702878  0.53074487     0.27300
C408        C  0.39403206  0.89781491  0.96752462     0.27300
C409        C  0.49189641  0.10736571  0.53469960     0.27300
C410        C  0.49332341  0.10533892  0.97064512     0.27300
C411        C  0.40326472  0.95959582  0.58283068     0.35900
C412        C  0.44264012  0.04080252  0.58418900     0.35900
C413        C  0.40739509  0.96135783  0.91716919     0.35900
C414        C  0.44586813  0.04257380  0.91849181     0.35900
C415        C  0.38605752  0.85249089  0.51839489    -0.21600
C416        C  0.39406252  0.85478251  0.97933972    -0.21600
C417        C  0.53209448  0.15412520  0.52454453    -0.21600
C418        C  0.53489210  0.14949081  0.98386499    -0.21600
C419        C  0.40024505  0.97328263  0.62128938    -0.22600
C420        C  0.42527955  0.02485470  0.62216156    -0.22600
C421        C  0.40368565  0.97645654  0.87938467    -0.22600
C422        C  0.42813600  0.02810865  0.88023248    -0.22600
C423        C  0.38936514  0.91050398  0.57059736    -0.18000
C424        C  0.39424124  0.91208836  0.92795029    -0.18000
C425        C  0.48037756  0.09216408  0.93064638    -0.18000
C426        C  0.47668881  0.09101280  0.57373295    -0.18000
H427        H  0.38333744  0.82244817  0.53666625     0.14900
H428        H  0.39602763  0.82726901  0.96070385     0.14900
H429        H  0.55729205  0.18420312  0.54424350     0.14900
H430        H  0.56351611  0.17942233  0.96615356     0.14900
H431        H  0.38364683  0.94872104  0.64640607     0.13200
H432        H  0.43181541  0.04801122  0.64810579     0.13200
H433        H  0.38699236  0.95284471  0.85359033     0.13200
H434        H  0.43426052  0.05232206  0.85520594     0.13200
H435        H  0.38521095  0.95282516  0.99913270     0.26500
H436        H  0.43100033  0.04537095  0.00065547     0.26500
C437        C  0.50361330  0.12711318  0.60598762     0.00200
C438        C  0.54441973  0.12659664  0.62344095    -0.11700
C439        C  0.57222359  0.16057432  0.65337796     0.02400
C440        C  0.55992205  0.19709019  0.66555777     0.00100
C441        C  0.51799769  0.19651323  0.64836656    -0.11700
C442        C  0.48970027  0.16162801  0.61889206     0.02300
H443        H  0.55425480  0.09912458  0.61370526     0.15300
H444        H  0.50737909  0.22349874  0.65770889     0.15300
C445        C  0.44633268  0.16138156  0.60252092     0.36900
C446        C  0.61131854  0.15495561  0.67194018     0.36800
N447        N  0.41134805  0.16085030  0.58948510    -0.43400
N448        N  0.64205053  0.14956741  0.68687941    -0.43400
C449        C  0.56135759  0.20372304  0.84129712     0.00200
C450        C  0.56979740  0.16334702  0.84706115    -0.11700
C451        C  0.54414177  0.12723793  0.87607942     0.02400
C452        C  0.50864041  0.13049741  0.89992933     0.00100
C453        C  0.50067219  0.17104215  0.89519257    -0.11700
C454        C  0.52670077  0.20771577  0.86637683     0.02300
H455        H  0.59644277  0.15956814  0.82873298     0.15300
H456        H  0.47399140  0.17396718  0.91414462     0.15300
C457        C  0.51736818  0.24906942  0.86402031     0.36900
C458        C  0.55528537  0.08738871  0.88128507     0.36800
N459        N  0.50986353  0.28219701  0.86231938    -0.43400
N460        N  0.56397334  0.05533377  0.88563259    -0.43400
C461        C  0.79732571  0.36242011  0.83872408     0.00200
C462        C  0.83492409  0.41251613  0.84657881    -0.11700
C463        C  0.87065688  0.42397840  0.87610616     0.02400
C464        C  0.86960526  0.38504111  0.89830652     0.00100
C465        C  0.83224736  0.33511669  0.89126529    -0.11700
C466        C  0.79615114  0.32328357  0.86169650     0.02300
H467        H  0.83664928  0.44319507  0.82969602     0.15300
H468        H  0.83163510  0.30537601  0.90877572     0.15300
C469        C  0.75901642  0.27077016  0.85592509     0.36900
C470        C  0.90787728  0.47604476  0.88350539     0.36800
N471        N  0.72942488  0.22863872  0.85140872    -0.43400
N472        N  0.93771497  0.51769427  0.88962168    -0.43400
C473        C  0.87111294  0.38679039  0.60407748     0.00200
C474        C  0.83880415  0.33700938  0.61557839    -0.11700
C475        C  0.80190531  0.32550653  0.64421067     0.02400
C476        C  0.79712602  0.36466108  0.66194074     0.00100
C477        C  0.82958734  0.41450228  0.64963175    -0.11700
C478        C  0.86606819  0.42567392  0.62094289     0.02300
H479        H  0.84228955  0.30708027  0.60188779     0.15300
H480        H  0.82678470  0.44521323  0.66250690     0.15300
C481        C  0.89715059  0.47720355  0.60841342     0.36900
C482        C  0.76935703  0.27317839  0.65384675     0.36800
N483        N  0.92186036  0.51840705  0.59811203    -0.43400
N484        N  0.74374134  0.23101089  0.66118169    -0.43400
C485        C  0.61782032  0.49429489  0.60627572     0.00200
C486        C  0.57734038  0.45926360  0.62899793    -0.11700
C487        C  0.58424587  0.43150957  0.65839545     0.02400
C488        C  0.63241201  0.43763940  0.66480422     0.00100
C489        C  0.67321847  0.47386675  0.64260568    -0.11700
C490        C  0.66628053  0.50229628  0.61367536     0.02300
H491        H  0.54016208  0.45374289  0.62373600     0.15300
H492        H  0.71058390  0.47984218  0.64768596     0.15300
C493        C  0.70933028  0.54009041  0.59238442     0.36900
C494        C  0.54173360  0.39908650  0.68280953     0.36800
N495        N  0.74376730  0.57070323  0.57544647    -0.43400
N496        N  0.50782937  0.37348286  0.70264767    -0.43400
C497        C  0.63960483  0.43836455  0.84059410     0.00200
C498        C  0.58960042  0.42456657  0.84928213    -0.11700
C499        C  0.57862264  0.44947102  0.87846368     0.02400
C500        C  0.61795133  0.49004951  0.89904160     0.00100
C501        C  0.66776015  0.50338773  0.89161046    -0.11700
C502        C  0.67899205  0.47755742  0.86311417     0.02300
H503        H  0.55854710  0.39387321  0.83345918     0.15300
H504        H  0.69784723  0.53370666  0.90850755     0.15300
C505        C  0.73098287  0.49135324  0.85891685     0.36900
C506        C  0.52664316  0.43165959  0.88781604     0.36800
N507        N  0.77267478  0.50226398  0.85611025    -0.43400
N508        N  0.48503145  0.41700446  0.89567086    -0.43400
C509        C  0.12881212  0.51928587  0.60056701     0.00200
C510        C  0.16546661  0.50618608  0.60763396    -0.11700
C511        C  0.20280773  0.53167438  0.63632732     0.02400
C512        C  0.20298511  0.57053570  0.65895459     0.00100
C513        C  0.16694720  0.58437295  0.65059527    -0.11700
C514        C  0.13045781  0.55953499  0.62148555     0.02300
H515        H  0.16489563  0.47609184  0.59055064     0.15300
H516        H  0.16675068  0.61444238  0.66710803     0.15300
C517        C  0.09559832  0.57657208  0.61308449     0.36900
C518        C  0.24094713  0.51799463  0.64090030     0.36800
N519        N  0.06796264  0.59057244  0.60627227    -0.43400
N520        N  0.27163365  0.50721204  0.64446350    -0.43400
C521        C  0.20042914  0.56336828  0.83640388     0.00200
C522        C  0.16237657  0.57488717  0.84359993    -0.11700
C523        C  0.12544509  0.54901479  0.87208145     0.02400
C524        C  0.12564289  0.51037130  0.89400672     0.00100
C525        C  0.16289094  0.49820599  0.88695317    -0.11700
C526        C  0.20017538  0.52417774  0.85860639     0.02300
H527        H  0.16133030  0.60440547  0.82703672     0.15300
H528        H  0.16311667  0.46863386  0.90410498     0.15300
C529        C  0.23796217  0.51014630  0.85398778     0.36900
C530        C  0.08834117  0.56352210  0.87903001     0.36800
N531        N  0.26814286  0.49869595  0.85056075    -0.43400
N532        N  0.05858691  0.57506027  0.88472479    -0.43400
C533        C  0.43433889  0.63647553  0.65805874     0.00200
C534        C  0.42345188  0.58699232  0.65089475    -0.11700
C535        C  0.44885951  0.57672362  0.62173717     0.02400
C536        C  0.48686707  0.61645751  0.59985314     0.00100
C537        C  0.49711883  0.66566725  0.60596658    -0.11700
C538        C  0.47070380  0.67596048  0.63435604     0.02300
H539        H  0.39507014  0.55610184  0.66814858     0.15300
H540        H  0.52525963  0.69588168  0.58803457     0.15300
C541        C  0.47982120  0.72671320  0.63678979     0.36900
C542        C  0.43439677  0.52503283  0.61385023     0.36800
N543        N  0.48676089  0.76726313  0.63832831    -0.43400
N544        N  0.42260155  0.48365408  0.60713688    -0.43400
C545        C  0.43939583  0.63972685  0.83570602     0.00200
C546        C  0.43345402  0.59142377  0.83761264    -0.11700
C547        C  0.45770757  0.57930038  0.86659308     0.02400
C548        C  0.48991273  0.61625077  0.89391621     0.00100
C549        C  0.49614935  0.66454334  0.89231628    -0.11700
C550        C  0.47086605  0.67649491  0.86382185     0.02300
H551        H  0.40933187  0.56257902  0.81653160     0.15300
H552        H  0.52002646  0.69259188  0.91400188     0.15300
C553        C  0.47596506  0.72568737  0.86567341     0.36900
C554        C  0.44740733  0.52813685  0.86853953     0.36800
N555        N  0.47985886  0.76500702  0.86750496    -0.43400
N556        N  0.43879378  0.48702221  0.86999687    -0.43400
C557        C  0.38100631  0.87298696  0.60147374     0.00200
C558        C  0.33233660  0.83283059  0.60827901    -0.11700
C559        C  0.32375957  0.79618425  0.63649799     0.02400
C560        C  0.36445247  0.80042054  0.65921509     0.00100
C561        C  0.41326699  0.84017354  0.65143434    -0.11700
C562        C  0.42180288  0.87595478  0.62265078     0.02300
H563        H  0.30120986  0.82973464  0.59099171     0.15300
H564        H  0.44498980  0.84360629  0.66805077     0.15300
C565        C  0.47290091  0.91475701  0.61456149     0.36900
C566        C  0.27347958  0.75338544  0.63970733     0.36800
N567        N  0.51382567  0.94569732  0.60782719    -0.43400
N568        N  0.23323863  0.71891486  0.64176252    -0.43400
C569        C  0.38481935  0.87492195  0.89630795     0.00200
C570        C  0.42463554  0.88307251  0.87172875    -0.13900
C571        C  0.41800360  0.84842131  0.84220929     0.02400
C572        C  0.37025258  0.80438590  0.83679445     0.00100
C573        C  0.33062002  0.79645789  0.86184718    -0.11700
C574        C  0.33756499  0.83107876  0.89142161     0.02300
H575        H  0.46117901  0.91665345  0.87585320     0.15300
H576        H  0.29390686  0.76293483  0.85852757     0.15300
C577        C  0.29560374  0.82083861  0.91635176     0.36900
C578        C  0.46093294  0.85981489  0.81799726     0.36800
N579        N  0.26194090  0.81233120  0.93640366    -0.43400
N580        N  0.49546845  0.86896507  0.79878334    -0.43400
loop_ 
_geom_bond_atom_site_label_1 
_geom_bond_atom_site_label_2 
_geom_bond_distance 
_geom_bond_site_symmetry_2 
_ccdc_geom_bond_type 
Fe1          O17   2.054       .  S
Fe1           O7   2.070       .  S
Fe1          O14   2.066       .  S
Fe1           O6   2.054       .  S
Fe1          O12   1.977       .  S
Fe2           O5   2.044       .  S
Fe2           O9   2.056       .  S
Fe2          O13   2.035       .  S
Fe2          O18   2.056       .  S
Fe2          O12   1.974       .  S
Fe3          O21   2.074       .  S
Fe3           O8   2.059       .  S
Fe3          O15   2.059       .  S
Fe3           O4   2.060       .  S
Fe3          O12   1.974       .  S
O4           C11   1.269       .  A
O5           C19   1.267       .  A
O6           C11   1.265       .  A
O7           C10   1.271       .  A
O8           C20   1.266       .  A
O9           C22   1.265       .  A
C10          O15   1.268       .  A
C10         C282   1.491       .  S
C11         C270   1.486       .  S
O13          C16   1.263       .  A
O14          C16   1.271       .  A
C16         C222   1.485       .  S
O17          C22   1.268       .  A
O18          C20   1.266       .  A
C19          O21   1.270       .  A
C19         C255   1.488       .  S
C20         C243   1.486       .  S
C22         C231   1.489       .  S
Fe23         O39   2.044       .  S
Fe23         O29   2.062       .  S
Fe23         O36   2.067       .  S
Fe23         O28   2.032       .  S
Fe23         O34   1.973       .  S
Fe24         O27   2.052       .  S
Fe24         O31   2.062       .  S
Fe24         O35   2.047       .  S
Fe24         O40   2.057       .  S
Fe24         O34   1.971       .  S
Fe25         O43   2.071       .  S
Fe25         O30   2.056       .  S
Fe25         O37   2.055       .  S
Fe25         O26   2.060       .  S
Fe25         O34   1.979       .  S
O26          C33   1.268       .  A
O27          C41   1.267       .  A
O28          C33   1.261       .  A
O29          C32   1.269       .  A
O30          C42   1.266       .  A
O31          C44   1.268       .  A
C32          O37   1.269       .  A
C32         C186   1.484       .  S
C33         C171   1.482       .  S
O35          C38   1.265       .  A
O36          C38   1.270       .  A
C38         C159   1.490       .  S
O39          C44   1.264       .  A
O40          C42   1.268       .  A
C41          O43   1.270       .  A
C41         C198   1.487       .  S
C42         C207   1.488       .  S
C44         C150   1.484       .  S
N45          C50   1.352       .  A
N45         C339   1.350       .  A
N45          H77   1.036       .  S
N46          C53   1.346       .  A
N46          C54   1.349   1_455  A
N47          C52   1.351       .  A
N47         C341   1.351       .  A
N47          H78   1.037       .  S
N48          C55   1.348   1_655  A
N48          C56   1.346       .  A
C49         N335   1.350   1_554  A
C49          C57   1.387       .  A
C49          C65   1.411       .  A
C50          C66   1.410       .  A
C50          C58   1.387       .  A
C51         N337   1.350       .  A
C51          C59   1.387       .  A
C51          C68   1.408       .  A
C52          C67   1.409       .  A
C52          C60   1.387       .  A
C53          C65   1.407       .  A
C53          C61   1.388       .  A
C54          C68   1.406       .  A
C54          C62   1.385       .  A
C55          C63   1.385       .  A
C55          C66   1.404       .  A
C56          C64   1.387       .  A
C56          C67   1.405       .  A
C57         C348   1.374   1_554  A
C57          H69   1.082       .  S
C58         C347   1.373       .  A
C58          H70   1.082       .  S
C59         C350   1.373   1_554  A
C59          H71   1.082       .  S
C60         C349   1.374       .  A
C60          H72   1.082       .  S
C61          C62   1.371   1_455  A
C61          H73   1.082       .  S
C62          H74   1.082       .  S
C63          C64   1.370   1_455  A
C63          H75   1.082       .  S
C64          H76   1.083       .  S
C65         C219   1.475       .  S
C66         C234   1.477       .  S
C67         C174   1.473       .  S
C68         C183   1.480       .  S
N79          C83   1.351       .  A
N79         C374   1.353       .  A
N79         H111   1.038       .  S
N80          C87   1.349       .  A
N80          C88   1.351       .  A
N81          C85   1.353       .  A
N81         C376   1.351       .  A
N81         H112   1.035       .  S
N82          C89   1.350       .  A
N82          C90   1.350       .  A
C83          C91   1.387       .  A
C83          C99   1.410       .  A
C84         N369   1.351       .  A
C84         C100   1.410       .  A
C84          C92   1.387       .  A
C85          C93   1.386       .  A
C85         C102   1.410       .  A
C86         N371   1.352   1_554  A
C86         C101   1.411       .  A
C86          C94   1.387       .  A
C87          C99   1.410       .  A
C87          C95   1.387       .  A
C88         C102   1.409       .  A
C88          C96   1.385       .  A
C89          C97   1.385       .  A
C89         C100   1.410       .  A
C90          C98   1.386       .  A
C90         C101   1.412       .  A
C91         C382   1.374       .  A
C91         H103   1.082       .  S
C92         C381   1.374   1_554  A
C92         H104   1.082       .  S
C93         C384   1.374       .  A
C93         H105   1.082       .  S
C94         C383   1.375   1_554  A
C94         H106   1.082       .  S
C95          C96   1.373       .  A
C95         H107   1.082       .  S
C96         H108   1.082       .  S
C97          C98   1.374       .  A
C97         H109   1.082       .  S
C98         H110   1.082       .  S
C99         C210   1.481       .  S
C100        C195   1.485       .  S
C101        C246   1.487       .  S
C102        C258   1.485       .  S
N113        C118   1.351       .  A
N113        C407   1.352       .  A
N113        H145   1.041       .  S
N114        C121   1.348       .  A
N114        C122   1.347   1_565  A
N115        C120   1.351       .  A
N115        C409   1.349       .  A
N115        H146   1.038       .  S
N116        C123   1.349   1_545  A
N116        C124   1.350       .  A
C117        N403   1.352   1_554  A
C117        C125   1.386       .  A
C117        C133   1.409       .  A
C118        C134   1.411       .  A
C118        C126   1.387       .  A
C119        N405   1.350       .  A
C119        C127   1.388       .  A
C119        C136   1.410       .  A
C120        C135   1.409       .  A
C120        C128   1.387       .  A
C121        C133   1.407       .  A
C121        C129   1.386       .  A
C122        C136   1.406       .  A
C122        C130   1.386       .  A
C123        C131   1.386       .  A
C123        C134   1.408       .  A
C124        C132   1.385       .  A
C124        C135   1.408       .  A
C125        C416   1.375   1_554  A
C125        H137   1.082       .  S
C126        C415   1.373       .  A
C126        H138   1.082       .  S
C127        C418   1.375   1_554  A
C127        H139   1.082       .  S
C128        C417   1.373       .  A
C128        H140   1.082       .  S
C129        C130   1.373   1_565  A
C129        H141   1.082       .  S
C130        H142   1.082       .  S
C131        C132   1.372   1_565  A
C131        H143   1.082       .  S
C132        H144   1.082       .  S
C133        C267   1.482       .  S
C134        C279   1.483       .  S
C135        C162   1.481       .  S
C136        C147   1.476       .  S
C147        C148   1.397       .  A
C147        C152   1.404       .  A
C148        C149   1.395       .  A
C148        H153   1.085       .  S
C149        C150   1.421       .  A
C149        C156   1.445       .  S
C150        C151   1.409       .  A
C151        C152   1.398       .  A
C151        H154   1.084       .  S
C152        C155   1.443       .  S
C155        N157   1.157       .  T
C156        N158   1.158       .  T
C159        C160   1.409       .  A
C159        C164   1.422       .  A
C160        C161   1.397       .  A
C160        H165   1.084       .  S
C161        C162   1.407       .  A
C161        C168   1.445       .  S
C162        C163   1.397       .  A
C163        C164   1.398       .  A
C163        H166   1.085       .  S
C164        C167   1.445       .  S
C167        N169   1.158       .  T
C168        N170   1.157       .  T
C171        C172   1.407       .  A
C171        C176   1.423       .  A
C172        C173   1.393       .  A
C172        H177   1.084       .  S
C173        C174   1.406       .  A
C173        C180   1.445       .  S
C174        C175   1.395       .  A
C175        C176   1.395       .  A
C175        H178   1.085       .  S
C176        C179   1.445       .  S
C179        N181   1.158       .  T
C180        N182   1.157       .  T
C183        C184   1.398       .  A
C183        C188   1.407       .  A
C184        C185   1.398       .  A
C184        H189   1.085       .  S
C185        C186   1.418       .  A
C185        C192   1.443       .  S
C186        C187   1.409       .  A
C187        C188   1.396       .  A
C187        H190   1.084       .  S
C188        C191   1.445       .  S
C191        N193   1.157       .  T
C192        N194   1.157       .  T
C195        C196   1.399       .  A
C195        C200   1.408       .  A
C196        C197   1.397       .  A
C196        H201   1.085       .  S
C197        C198   1.419       .  A
C197        C204   1.445       .  S
C198        C199   1.408       .  A
C199        C200   1.401       .  A
C199        H202   1.084       .  S
C200        C203   1.444       .  S
C203        N205   1.157       .  T
C204        N206   1.157       .  T
C207        C208   1.409       .  A
C207        C212   1.420       .  A
C208        C209   1.394       .  A
C208        H213   1.084       .  S
C209        C210   1.406       .  A
C209        C216   1.445       .  S
C210        C211   1.399       .  A
C211        C212   1.400       .  A
C211        H214   1.085       .  S
C212        C215   1.445       .  S
C215        N217   1.158       .  T
C216        N218   1.157       .  T
C219        C220   1.395       .  A
C219        C224   1.406       .  A
C220        C221   1.397       .  A
C220        H225   1.085       .  S
C221        C222   1.424       .  A
C221        C228   1.445       .  S
C222        C223   1.407       .  A
C223        C224   1.394       .  A
C223        H226   1.084       .  S
C224        C227   1.445       .  S
C227        N229   1.157       .  T
C228        N230   1.158       .  T
C231        C232   1.409       .  A
C231        C236   1.422       .  A
C232        C233   1.394       .  A
C232        H237   1.084       .  S
C233        C234   1.405       .  A
C233        C240   1.445       .  S
C234        C235   1.397       .  A
C235        C236   1.400       .  A
C235        H238   1.085       .  S
C236        C239   1.444       .  S
C239        N241   1.158       .  T
C240        N242   1.157       .  T
C243        C244   1.407       .  A
C243        C248   1.417       .  A
C244        C245   1.396       .  A
C244        H249   1.084       .  S
C245        C246   1.409       .  A
C245        C252   1.445       .  S
C246        C247   1.403       .  A
C247        C248   1.402       .  A
C247        H250   1.085       .  S
C248        C251   1.445       .  S
C251        N253   1.158       .  T
C252        N254   1.157       .  T
C255        C256   1.409       .  A
C255        C260   1.418       .  A
C256        C257   1.395       .  A
C256        H261   1.084       .  S
C257        C258   1.407       .  A
C257        C264   1.444       .  S
C258        C259   1.402       .  A
C259        C260   1.403       .  A
C259        H262   1.085       .  S
C260        C263   1.444       .  S
C263        N265   1.157       .  T
C264        N266   1.157       .  T
C267        C268   1.400       .  A
C267        C272   1.407       .  A
C268        C269   1.402       .  A
C268        H273   1.085       .  S
C269        C270   1.420       .  A
C269        C276   1.445       .  S
C270        C271   1.407       .  A
C271        C272   1.394       .  A
C271        H274   1.084       .  S
C272        C275   1.444       .  S
C275        N277   1.157       .  T
C276        N278   1.158       .  T
C279        C280   1.399       .  A
C279        C284   1.405       .  A
C280        C281   1.398       .  A
C280        H285   1.085       .  S
C281        C282   1.421       .  A
C281        C288   1.445       .  S
C282        C283   1.410       .  A
C283        C284   1.400       .  A
C283        H286   1.084       .  S
C284        C287   1.444       .  S
C287        N289   1.157       .  T
C288        N290   1.157       .  T
Fe291       O307   2.065       .  S
Fe291       O297   2.055       .  S
Fe291       O304   2.048       .  S
Fe291       O296   2.061       .  S
Fe291       O302   1.969       .  S
Fe292       O295   2.055       .  S
Fe292       O299   2.062       .  S
Fe292       O303   2.057       .  S
Fe292       O308   2.055       .  S
Fe292       O302   1.971       .  S
Fe293       O311   2.061       .  S
Fe293       O298   2.054       .  S
Fe293       O305   2.058       .  S
Fe293       O294   2.058       .  S
Fe293       O302   1.974       .  S
O294        C301   1.268       .  A
O295        C309   1.270       .  A
O296        C301   1.267       .  A
O297        C300   1.269       .  A
O298        C310   1.265       .  A
O299        C312   1.267       .  A
C300        O305   1.267       .  A
C300        C572   1.486       .  S
C301        C560   1.482       .  S
O303        C306   1.267       .  A
O304        C306   1.268       .  A
C306        C512   1.481       .  S
O307        C312   1.269       .  A
O308        C310   1.267       .  A
C309        O311   1.269       .  A
C309        C545   1.483       .  S
C310        C533   1.481       .  S
C312        C521   1.495       .  S
Fe313       O329   2.037       .  S
Fe313       O319   2.074       .  S
Fe313       O326   2.069       .  S
Fe313       O318   2.038       .  S
Fe313       O324   1.963       .  S
Fe314       O317   2.058       .  S
Fe314       O321   2.069       .  S
Fe314       O325   2.055       .  S
Fe314       O330   2.062       .  S
Fe314       O324   1.961       .  S
Fe315       O333   2.072       .  S
Fe315       O320   2.059       .  S
Fe315       O327   2.053       .  S
Fe315       O316   2.063       .  S
Fe315       O324   1.961       .  S
O316        C323   1.270       .  A
O317        C331   1.269       .  A
O318        C323   1.263       .  A
O319        C322   1.270       .  A
O320        C332   1.268       .  A
O321        C334   1.270       .  A
C322        O327   1.269       .  A
C322        C476   1.489       .  S
C323        C461   1.483       .  S
O325        C328   1.266       .  A
O326        C328   1.271       .  A
C328        C449   1.491       .  S
O329        C334   1.264       .  A
O330        C332   1.270       .  A
C331        O333   1.270       .  A
C331        C488   1.485       .  S
C332        C497   1.491       .  S
C334        C440   1.480       .  S
N335        C340   1.352       .  A
N335        H367   1.043       .  S
N336        C343   1.350   1_655  A
N336        C344   1.350       .  A
N337        C342   1.348   1_554  A
N337        H368   1.043       .  S
N338        C345   1.350   1_655  A
N338        C346   1.348       .  A
C339        C347   1.387       .  A
C339        C355   1.409       .  A
C340        C356   1.413       .  A
C340        C348   1.387       .  A
C341        C349   1.387       .  A
C341        C358   1.410       .  A
C342        C357   1.407       .  A
C342        C350   1.387       .  A
C343        C355   1.410       .  A
C343        C351   1.386       .  A
C344        C358   1.410       .  A
C344        C352   1.385       .  A
C345        C353   1.385       .  A
C345        C356   1.408       .  A
C346        C354   1.387       .  A
C346        C357   1.408       .  A
C347        H359   1.082       .  S
C348        H360   1.082       .  S
C349        H361   1.082       .  S
C350        H362   1.082       .  S
C351        C352   1.373   1_455  A
C351        H363   1.082       .  S
C352        H364   1.082       .  S
C353        C354   1.371   1_455  A
C353        H365   1.082       .  S
C354        H366   1.082       .  S
C355        C509   1.479       .  S
C356        C524   1.487       .  S
C357        C464   1.474       .  S
C358        C473   1.481       .  S
N369        C373   1.351   1_554  A
N369        H401   1.039       .  S
N370        C377   1.348       .  A
N370        C378   1.349       .  A
N371        C375   1.351       .  A
N371        H402   1.039       .  S
N372        C379   1.350       .  A
N372        C380   1.348       .  A
C373        C381   1.387       .  A
C373        C389   1.409       .  A
C374        C390   1.412       .  A
C374        C382   1.387       .  A
C375        C383   1.387       .  A
C375        C392   1.410       .  A
C376        C391   1.410       .  A
C376        C384   1.388       .  A
C377        C389   1.408       .  A
C377        C385   1.386       .  A
C378        C392   1.409       .  A
C378        C386   1.386       .  A
C379        C387   1.385       .  A
C379        C390   1.408       .  A
C380        C388   1.387       .  A
C380        C391   1.409       .  A
C381        H393   1.082       .  S
C382        H394   1.082       .  S
C383        H395   1.082       .  S
C384        H396   1.082       .  S
C385        C386   1.374       .  A
C385        H397   1.082       .  S
C386        H398   1.082       .  S
C387        C388   1.373       .  A
C387        H399   1.082       .  S
C388        H400   1.082       .  S
C389        C500   1.480       .  S
C390        C485   1.487       .  S
C391        C536   1.479       .  S
C392        C548   1.484       .  S
N403        C408   1.351       .  A
N403        H435   1.039       .  S
N404        C411   1.349   1_545  A
N404        C412   1.348       .  A
N405        C410   1.352   1_554  A
N405        H436   1.038       .  S
N406        C413   1.348   1_545  A
N406        C414   1.349       .  A
C407        C415   1.387       .  A
C407        C423   1.411       .  A
C408        C424   1.410       .  A
C408        C416   1.387       .  A
C409        C417   1.388       .  A
C409        C426   1.410       .  A
C410        C425   1.410       .  A
C410        C418   1.386       .  A
C411        C423   1.409       .  A
C411        C419   1.386       .  A
C412        C426   1.408       .  A
C412        C420   1.386       .  A
C413        C421   1.386       .  A
C413        C424   1.408       .  A
C414        C422   1.386       .  A
C414        C425   1.409       .  A
C415        H427   1.082       .  S
C416        H428   1.082       .  S
C417        H429   1.082       .  S
C418        H430   1.082       .  S
C419        C420   1.371   1_565  A
C419        H431   1.082       .  S
C420        H432   1.083       .  S
C421        C422   1.374   1_565  A
C421        H433   1.082       .  S
C422        H434   1.082       .  S
C423        C557   1.484       .  S
C424        C569   1.483       .  S
C425        C452   1.485       .  S
C426        C437   1.474       .  S
C437        C438   1.396       .  A
C437        C442   1.404       .  A
C438        C439   1.392       .  A
C438        H443   1.086       .  S
C439        C440   1.419       .  A
C439        C446   1.445       .  S
C440        C441   1.408       .  A
C441        C442   1.397       .  A
C441        H444   1.084       .  S
C442        C445   1.443       .  S
C445        N447   1.157       .  T
C446        N448   1.157       .  T
C449        C450   1.409       .  A
C449        C454   1.421       .  A
C450        C451   1.396       .  A
C450        H455   1.084       .  S
C451        C452   1.407       .  A
C451        C458   1.445       .  S
C452        C453   1.400       .  A
C453        C454   1.402       .  A
C453        H456   1.085       .  S
C454        C457   1.445       .  S
C457        N459   1.158       .  T
C458        N460   1.157       .  T
C461        C462   1.408       .  A
C461        C466   1.422       .  A
C462        C463   1.391       .  A
C462        H467   1.084       .  S
C463        C464   1.404       .  A
C463        C470   1.444       .  S
C464        C465   1.397       .  A
C465        C466   1.398       .  A
C465        H468   1.085       .  S
C466        C469   1.445       .  S
C469        N471   1.158       .  T
C470        N472   1.157       .  T
C473        C474   1.398       .  A
C473        C478   1.405       .  A
C474        C475   1.401       .  A
C474        H479   1.085       .  S
C475        C476   1.420       .  A
C475        C482   1.442       .  S
C476        C477   1.409       .  A
C477        C478   1.395       .  A
C477        H480   1.084       .  S
C478        C481   1.444       .  S
C481        N483   1.157       .  T
C482        N484   1.157       .  T
C485        C486   1.401       .  A
C485        C490   1.408       .  A
C486        C487   1.398       .  A
C486        H491   1.085       .  S
C487        C488   1.416       .  A
C487        C494   1.444       .  S
C488        C489   1.408       .  A
C489        C490   1.402       .  A
C489        H492   1.084       .  S
C490        C493   1.444       .  S
C493        N495   1.157       .  T
C494        N496   1.157       .  T
C497        C498   1.410       .  A
C497        C502   1.421       .  A
C498        C499   1.394       .  A
C498        H503   1.084       .  S
C499        C500   1.405       .  A
C499        C506   1.445       .  S
C500        C501   1.399       .  A
C501        C502   1.402       .  A
C501        H504   1.085       .  S
C502        C505   1.444       .  S
C505        N507   1.158       .  T
C506        N508   1.157       .  T
C509        C510   1.400       .  A
C509        C514   1.406       .  A
C510        C511   1.400       .  A
C510        H515   1.085       .  S
C511        C512   1.418       .  A
C511        C518   1.445       .  S
C512        C513   1.406       .  A
C513        C514   1.393       .  A
C513        H516   1.084       .  S
C514        C517   1.444       .  S
C517        N519   1.157       .  T
C518        N520   1.158       .  T
C521        C522   1.410       .  A
C521        C526   1.421       .  A
C522        C523   1.398       .  A
C522        H527   1.084       .  S
C523        C524   1.408       .  A
C523        C530   1.445       .  S
C524        C525   1.399       .  A
C525        C526   1.401       .  A
C525        H528   1.085       .  S
C526        C529   1.444       .  S
C529        N531   1.157       .  T
C530        N532   1.157       .  T
C533        C534   1.406       .  A
C533        C538   1.418       .  A
C534        C535   1.395       .  A
C534        H539   1.084       .  S
C535        C536   1.407       .  A
C535        C542   1.444       .  S
C536        C537   1.399       .  A
C537        C538   1.399       .  A
C537        H540   1.085       .  S
C538        C541   1.445       .  S
C541        N543   1.157       .  T
C542        N544   1.157       .  T
C545        C546   1.407       .  A
C545        C550   1.416       .  A
C546        C547   1.393       .  A
C546        H551   1.085       .  S
C547        C548   1.408       .  A
C547        C554   1.444       .  S
C548        C549   1.402       .  A
C549        C550   1.401       .  A
C549        H552   1.085       .  S
C550        C553   1.444       .  S
C553        N555   1.158       .  T
C554        N556   1.157       .  T
C557        C558   1.400       .  A
C557        C562   1.408       .  A
C558        C559   1.401       .  A
C558        H563   1.085       .  S
C559        C560   1.418       .  A
C559        C566   1.445       .  S
C560        C561   1.405       .  A
C561        C562   1.396       .  A
C561        H564   1.085       .  S
C562        C565   1.444       .  S
C565        N567   1.157       .  T
C566        N568   1.157       .  T
C569        C570   1.400       .  A
C569        C574   1.407       .  A
C570        C571   1.398       .  A
C570        H575   1.085       .  S
C571        C572   1.420       .  A
C571        C578   1.445       .  S
C572        C573   1.407       .  A
C573        C574   1.396       .  A
C573        H576   1.084       .  S
C574        C577   1.444       .  S
C577        N579   1.157       .  T
C578        N580   1.158       .  T
