geometry optimzed in LAMMPS
_audit_creation_date              2020-12-01 
_audit_creation_method            'lammps2cif' 
_symmetry_space_group_name_H-M    'P1' 
_symmetry_Int_Tables_number       1 
_symmetry_cell_setting            triclinic 
loop_ 
_symmetry_equiv_pos_as_xyz 
  x,y,z 
_cell_length_a                    61.72772245 
_cell_length_b                    61.9238834279808 
_cell_length_c                    42.75394211871199 
_cell_angle_alpha                 89.98782196622552 
_cell_angle_beta                  90.26385181196574 
_cell_angle_gamma                 121.46122958814875 
loop_ 
_atom_site_label 
_atom_site_type_symbol 
_atom_site_fract_x 
_atom_site_fract_y 
_atom_site_fract_z 
_atom_site_charge 
Fe1        Fe  0.54208722  0.63271717  0.24671766     1.65800
Fe2        Fe  0.51605438  0.66876007  0.25986789     1.73200
Fe3        Fe  0.57920664  0.69710270  0.24448820     1.54400
O4          O  0.59479255  0.68602455  0.27940213    -0.81300
O5          O  0.52675235  0.69787044  0.22837272    -0.79600
O6          O  0.57501827  0.64411364  0.27244221    -0.83800
O7          O  0.56150884  0.64123268  0.20532900    -0.78600
O8          O  0.57349378  0.71776196  0.27785180    -0.80400
O9          O  0.49469707  0.64396781  0.22456903    -0.83200
C10         C  0.58214267  0.66064552  0.19688929     0.97600
C11         C  0.59190214  0.66457076  0.28557618     1.05000
O12         O  0.54571674  0.66611919  0.25025858    -1.12100
O13         O  0.50131012  0.63996664  0.29260382    -0.74600
O14         O  0.52246733  0.62003963  0.28791651    -0.78100
O15         O  0.59122279  0.68192569  0.21030419    -0.78700
C16         C  0.50639413  0.62353862  0.30152240     0.96500
O17         O  0.50859595  0.61726952  0.22069078    -0.76700
O18         O  0.53423738  0.69394717  0.29605653    -0.81900
C19         C  0.54471265  0.71034724  0.20918627     0.99100
C20         C  0.55626709  0.71363329  0.29718704     1.05100
O21         O  0.56525101  0.71012956  0.20962487    -0.77500
C22         C  0.49321429  0.62430897  0.21325920     1.03400
Fe23       Fe  0.36249858  0.45246581  0.99711312     1.65800
Fe24       Fe  0.32562941  0.47984662  0.50649322     1.73200
Fe25       Fe  0.29806266  0.41558777  0.49791860     1.54400
O26         O  0.31235777  0.40376072  0.46187609    -0.81300
O27         O  0.29925091  0.46184474  0.03935955    -0.79600
O28         O  0.35378139  0.43201113  0.45822515    -0.83800
O29         O  0.35248450  0.42101586  0.02434207    -0.78600
O30         O  0.28195718  0.42657024  0.46418313    -0.80400
O31         O  0.35382909  0.49454341  0.03846423    -0.83200
C32         C  0.33227849  0.40364304  0.03698640     0.97600
C33         C  0.33377959  0.41221628  0.44882774     1.05000
O34         O  0.32879835  0.44987261  0.50060760    -1.12100
O35         O  0.35161061  0.50053289  0.47253645    -0.74600
O36         O  0.37731151  0.48551141  0.46871913    -0.78100
O37         O  0.31049884  0.39979457  0.03040977    -0.78700
C38         C  0.37085637  0.50123654  0.46127146     0.96500
O39         O  0.37432554  0.47367043  0.03721568    -0.76700
O40         O  0.29753679  0.46782000  0.47219445    -0.81900
C41         C  0.28126779  0.43951462  0.04507718     0.99100
C42         C  0.28294455  0.44708463  0.45786204     1.05100
O43         O  0.27824199  0.42032993  0.03033358    -0.77500
C44         C  0.37043753  0.49006680  0.04908146     1.03400
Fe45       Fe  0.07797598  0.43489279  0.24783553     1.65800
Fe46       Fe  0.14315820  0.46924934  0.24925447     1.73200
Fe47       Fe  0.11026276  0.40391502  0.25210395     1.54400
O48         O  0.08364616  0.38931951  0.28759047    -0.81300
O49         O  0.15884542  0.45702548  0.21588135    -0.79600
O50         O  0.06183701  0.40865386  0.28283893    -0.83800
O51         O  0.06226504  0.40687862  0.21461404    -0.78600
O52         O  0.13816877  0.41739014  0.28639373    -0.80400
O53         O  0.13200267  0.48391873  0.21335897    -0.83200
C54         C  0.06540149  0.38917202  0.20587264     0.97600
C55         C  0.06586663  0.39264308  0.29573672     1.05000
O56         O  0.11053178  0.43603674  0.24973425    -1.12100
O57         O  0.13145723  0.48544465  0.28278733    -0.74600
O58         O  0.08913734  0.46265498  0.28129090    -0.78100
O59         O  0.08245574  0.38587353  0.21745587    -0.78700
C60         C  0.10986986  0.48067180  0.29221031     1.00100
O61         O  0.08972874  0.46067760  0.21212344    -0.76700
O62         O  0.15909955  0.45953878  0.28496434    -0.81900
C63         C  0.15451687  0.43559290  0.20651109     0.99100
C64         C  0.15560897  0.43896759  0.29608528     1.05100
O65         O  0.13694638  0.41474403  0.21748218    -0.77500
C66         C  0.11072342  0.47855638  0.20199050     1.03400
Fe67       Fe  0.53651687  0.90640891  0.99947748     1.65800
Fe68       Fe  0.50884011  0.84004762  0.50495130     1.73200
Fe69       Fe  0.57343130  0.87907907  0.49834660     1.54400
O70         O  0.58433119  0.90316056  0.46039295    -0.81300
O71         O  0.52677616  0.82929501  0.03443942    -0.79600
O72         O  0.56416846  0.92364431  0.46834704    -0.83800
O73         O  0.56009638  0.92298112  0.03718833    -0.78600
O74         O  0.56196692  0.84911899  0.46713594    -0.80400
O75         O  0.49597398  0.85161521  0.04106392    -0.83200
C76         C  0.58067430  0.92459480  0.04548143     0.97600
C77         C  0.58073951  0.92106757  0.45437552     1.05000
O78         O  0.53921103  0.87422405  0.50097400    -1.12100
O79         O  0.48805204  0.84758334  0.47280037    -0.74600
O80         O  0.51022002  0.88904821  0.46280080    -0.78100
O81         O  0.58916133  0.91194810  0.03251911    -0.78700
C82         C  0.49171459  0.86679660  0.45736641     0.96500
O83         O  0.50581429  0.89076549  0.02970435    -0.76700
O84         O  0.51957820  0.82621693  0.46866311    -0.81900
C85         C  0.54877135  0.83799598  0.04623640     0.99100
C86         C  0.54060337  0.83059962  0.45804576     1.05100
O87         O  0.56792902  0.85867801  0.03762794    -0.77500
C88         C  0.49362168  0.87051534  0.04549338     1.03400
Fe89       Fe  0.90338800  0.34993179  0.00533202     1.65800
Fe90       Fe  0.84036758  0.32007509  0.50132088     1.73200
Fe91       Fe  0.87025929  0.28660304  0.49570948     1.54400
O92         O  0.89947206  0.29967066  0.46350171    -0.81300
O93         O  0.82233509  0.29077957  0.03797777    -0.79600
O94         O  0.91912950  0.34171271  0.46299553    -0.83800
O95         O  0.91930544  0.33672448  0.03666356    -0.78600
O96         O  0.84536561  0.27506892  0.45819851    -0.80400
O97         O  0.85070251  0.34560626  0.03810175    -0.83200
C98         C  0.91366019  0.31550755  0.04806493     0.97600
C99         C  0.91610207  0.32111583  0.45282577     1.05000
O100        O  0.87197047  0.31926399  0.49916845    -1.12100
O101        O  0.85184979  0.34683040  0.46618642    -0.74600
O102        O  0.89412800  0.36932775  0.47014579    -0.78100
O103        O  0.89451772  0.29472668  0.03887927    -0.78700
C104        C  0.87346325  0.36537264  0.45835515     0.96500
O105        O  0.89261184  0.36304544  0.04257785    -0.76700
O106        O  0.82177956  0.29198645  0.46773353    -0.81900
C107        C  0.82401506  0.27179744  0.04514426     0.99100
C108        C  0.82643437  0.27728697  0.45240445     1.05100
O109        O  0.84002124  0.26746027  0.03280732    -0.77500
C110        C  0.87193810  0.36090195  0.05103699     1.03400
Fe111      Fe  0.61056906  0.08235880  0.25315573     1.65800
Fe112      Fe  0.64821334  0.14609880  0.24793503     1.73200
Fe113      Fe  0.67388466  0.10974351  0.25870836     1.54400
O114        O  0.65581583  0.07881030  0.28899415    -0.81300
O115        O  0.67335589  0.15514341  0.21183678    -0.79600
O116        O  0.61693670  0.07169376  0.29574742    -0.83800
O117        O  0.62239534  0.06091027  0.22916907    -0.78600
O118        O  0.68513806  0.13309082  0.29714516    -0.80400
O119        O  0.61893742  0.13309895  0.21451394    -0.83200
C120        C  0.64260358  0.06652135  0.21452168     0.97600
C121        C  0.63493463  0.06871920  0.30376359     1.05000
O122        O  0.64420227  0.11284083  0.25318797    -1.12100
O123        O  0.62340975  0.13996900  0.28357351    -0.74600
O124        O  0.59391241  0.09927102  0.27677866    -0.78100
O125        O  0.66381460  0.08642231  0.22029331    -0.78700
C126        C  0.60173262  0.12078000  0.28921894     0.96500
O127        O  0.60183206  0.09128136  0.21087404    -0.76700
O128        O  0.67775462  0.16304655  0.28099037    -0.81900
C129        C  0.69307810  0.15369141  0.21073764     0.99100
C130        C  0.68759716  0.15465451  0.30010394     1.05100
O131        O  0.69681416  0.13999910  0.22943065    -0.77500
C132        C  0.60418306  0.11176517  0.20137105     1.03400
Fe133      Fe  0.89019021  0.52012462  0.25442965     1.65800
Fe134      Fe  0.82824928  0.50142181  0.24996797     1.73200
Fe135      Fe  0.87330663  0.56424652  0.25295290     1.54400
O136        O  0.89581638  0.57259802  0.29205792    -0.81300
O137        O  0.81777484  0.52125433  0.22051618    -0.79600
O138        O  0.91370299  0.54979475  0.28448808    -0.83800
O139        O  0.90819597  0.54195168  0.21639816    -0.78600
O140        O  0.84322032  0.55701024  0.28313872    -0.80400
O141        O  0.83433862  0.48586376  0.21099852    -0.83200
C142        C  0.91412445  0.56425449  0.20927847     0.97600
C143        C  0.91256411  0.56731363  0.29843575     1.05000
O144        O  0.86394001  0.52871605  0.25244747    -1.12100
O145        O  0.83303824  0.47731620  0.27948192    -0.74600
O146        O  0.87395756  0.49758260  0.29269852    -0.78100
O147        O  0.90446509  0.57563149  0.22291680    -0.78700
C148        C  0.85121323  0.47952178  0.29614954     0.96500
O149        O  0.87089282  0.48923885  0.22427919    -0.76700
O150        O  0.81975601  0.51494017  0.28846957    -0.81900
C151        C  0.82946661  0.54253643  0.20672972     0.99100
C152        C  0.82546113  0.53703886  0.29625976     1.05100
O153        O  0.85195548  0.55963474  0.21372503    -0.77500
C154        C  0.85103416  0.48006145  0.20722896     1.03400
Fe155      Fe  0.43899394  0.08292930  0.99680716     1.65800
Fe156      Fe  0.46029163  0.14687149  0.49600673     1.73200
Fe157      Fe  0.39652125  0.10422280  0.50426839     1.54400
O158        O  0.38124341  0.07433477  0.47251410    -0.81300
O159        O  0.45155905  0.15962151  0.03050140    -0.79600
O160        O  0.41064508  0.06428689  0.46486817    -0.83800
O161        O  0.41358191  0.06336553  0.03245112    -0.78600
O162        O  0.39983290  0.12778322  0.46764348    -0.80400
O163        O  0.48507912  0.14116655  0.02316739    -0.83200
C164        C  0.39714743  0.06544617  0.04764353     0.97600
C165        C  0.38929026  0.06172993  0.45867469     1.05000
O166        O  0.43162709  0.11152867  0.49955517    -1.12100
O167        O  0.47459948  0.13948259  0.45663177    -0.74600
O168        O  0.46414253  0.09944538  0.46265866    -0.78100
O169        O  0.39095382  0.08142638  0.04064070    -0.78700
C170        C  0.47565943  0.12041942  0.44827007     0.96500
O171        O  0.46756992  0.09960668  0.03011127    -0.76700
O172        O  0.44087018  0.15776307  0.46691138    -0.81900
C173        C  0.43038920  0.15334911  0.04277443     0.99100
C174        C  0.41817169  0.14861184  0.45752419     1.05100
O175        O  0.40956173  0.13423526  0.03379149    -0.77500
C176        C  0.48437754  0.12246694  0.03637284     1.03400
Fe177      Fe  0.62981156  0.54015727  0.98524363     1.65800
Fe178      Fe  0.66810463  0.51946707  0.49989442     1.73200
Fe179      Fe  0.69080052  0.58304407  0.50302884     1.54400
O180        O  0.68257868  0.59613268  0.46255600    -0.81300
O181        O  0.69562549  0.53526693  0.03594479    -0.79600
O182        O  0.64061444  0.57162129  0.45766695    -0.83800
O183        O  0.62909339  0.55962311  0.02328123    -0.78600
O184        O  0.71560689  0.57740775  0.47647838    -0.80400
O185        O  0.64077837  0.50131541  0.03354275    -0.83200
C186        C  0.64545993  0.57986295  0.03685878     0.97600
C187        C  0.66173186  0.59062618  0.44967877     1.05000
O188        O  0.66251249  0.54788678  0.49641306    -1.12100
O189        O  0.64316906  0.49874470  0.46404334    -0.74600
O190        O  0.62470871  0.51938941  0.44749257    -0.78100
O191        O  0.66905184  0.59168045  0.03021954    -0.78700
C192        C  0.62934853  0.50178631  0.44472668     0.96500
O193        O  0.61157703  0.50780631  0.01234597    -0.76700
O194        O  0.69707010  0.53581434  0.46735896    -0.81900
C195        C  0.70520800  0.55526798  0.05230947     0.99100
C196        C  0.71483297  0.55869770  0.46294386     1.05100
O197        O  0.70221422  0.57348971  0.04572494    -0.77500
C198        C  0.61831632  0.49724239  0.03232967     1.03400
Fe199      Fe  0.45071648  0.36387567  0.24115677     1.65800
Fe200      Fe  0.47705941  0.32760353  0.24802369     1.73200
Fe201      Fe  0.41256295  0.29995404  0.24978864     1.54400
O202        O  0.40257321  0.31569834  0.28530568    -0.81300
O203        O  0.46054879  0.29488704  0.22072725    -0.79600
O204        O  0.42127390  0.35623636  0.27153881    -0.83800
O205        O  0.42644275  0.35215292  0.20383540    -0.78600
O206        O  0.42319478  0.28330854  0.28432286    -0.80400
O207        O  0.49186925  0.34796700  0.20758662    -0.83200
C208        C  0.40511960  0.33211364  0.19909951     0.97600
C209        C  0.40601664  0.33763652  0.28854694     1.05000
O210        O  0.44676170  0.33041906  0.24622269    -1.12100
O211        O  0.49807667  0.36031650  0.27518544    -0.74600
O212        O  0.47503764  0.37847626  0.27838034    -0.78100
O213        O  0.39707726  0.31214741  0.21538989    -0.78700
C214        C  0.49399838  0.37698388  0.28620136     0.96500
O215        O  0.48113952  0.37711905  0.21007385    -0.76700
O216        O  0.46537526  0.30683446  0.28867140    -0.81900
C217        C  0.43886087  0.28028895  0.20832653     0.99100
C218        C  0.44393287  0.28890120  0.29780725     1.05100
O219        O  0.41943741  0.28134228  0.21499864    -0.77500
C220        C  0.49401574  0.36842785  0.19837255     1.03400
Fe221      Fe  0.08550640  0.61288003  0.00051404     1.65800
Fe222      Fe  0.14771293  0.66116829  0.49954174     1.73200
Fe223      Fe  0.10041652  0.67479203  0.50043236     1.54400
O224        O  0.07187774  0.65466129  0.46692886    -0.81300
O225        O  0.15576644  0.68504837  0.03536154    -0.79600
O226        O  0.06717125  0.61641582  0.46377470    -0.83800
O227        O  0.06164201  0.61593886  0.03170291    -0.78600
O228        O  0.12408719  0.69541645  0.46419813    -0.80400
O229        O  0.14378070  0.63363708  0.02991850    -0.83200
C230        C  0.06049343  0.63364796  0.04496789     0.97600
C231        C  0.06239364  0.63287073  0.45433564     1.05000
O232        O  0.11136673  0.64987162  0.50048822    -1.12100
O233        O  0.14336162  0.63848251  0.46167870    -0.74600
O234        O  0.10537484  0.60408685  0.46977898    -0.78100
O235        O  0.07519080  0.65670515  0.03787178    -0.78700
C236        C  0.12628186  0.61586594  0.45512019     0.96500
O237        O  0.10248639  0.60660666  0.03793686    -0.76700
O238        O  0.15710456  0.69033009  0.46835360    -0.81900
C239        C  0.14743312  0.69873690  0.04502677     0.99100
C240        C  0.14607351  0.70080620  0.45619739     1.05100
O241        O  0.12756408  0.69728384  0.03381503    -0.77500
C242        C  0.12567547  0.61498065  0.04420852     1.03400
Fe243      Fe  0.35894389  0.90048213  0.24983593     1.65800
Fe244      Fe  0.31993489  0.83641354  0.24811638     1.73200
Fe245      Fe  0.29439295  0.87404637  0.25588463     1.54400
O246        O  0.31179272  0.90291773  0.28942528    -0.81300
O247        O  0.29179181  0.82447048  0.21493888    -0.79600
O248        O  0.35292119  0.91580692  0.28854108    -0.83800
O249        O  0.34838318  0.91987509  0.22028502    -0.78600
O250        O  0.27908550  0.84775940  0.29201700    -0.80400
O251        O  0.34578955  0.84634266  0.21217834    -0.83200
C252        C  0.32780349  0.91725711  0.20999506     0.97600
C253        C  0.33437497  0.91639353  0.29987590     1.05000
O254        O  0.32435834  0.87029174  0.25124839    -1.12100
O255        O  0.34731765  0.84392897  0.28141298    -0.74600
O256        O  0.37435319  0.88552906  0.27940705    -0.78100
O257        O  0.30610807  0.90019625  0.21980696    -0.78700
C258        C  0.36759361  0.86377864  0.29003039     0.96500
O259        O  0.36935057  0.88844744  0.21102334    -0.76700
O260        O  0.29380874  0.82211253  0.28352945    -0.81900
C261        C  0.27426596  0.82886228  0.20921163     0.99100
C262        C  0.28011493  0.82823585  0.29843033     1.05100
O263        O  0.27265268  0.84608030  0.22312138    -0.77500
C264        C  0.36341073  0.86687530  0.20053230     1.03400
C265        C  0.22852295  0.78986172  0.35958611     0.19100
C266        C  0.20196563  0.77778209  0.35875818    -0.19000
C267        C  0.18699826  0.75814640  0.37964215    -0.11300
C268        C  0.19844926  0.75053403  0.40213275     0.21300
C269        C  0.22502738  0.76304797  0.40327150    -0.20600
C270        C  0.23991143  0.78257439  0.38244953    -0.11500
C271        C  0.18368689  0.72947550  0.42449499    -0.15600
C272        C  0.15930668  0.72050425  0.43208949    -0.29500
C273        C  0.24401912  0.80933150  0.33578511    -0.03700
C274        C  0.26522000  0.81135326  0.32430389    -0.40300
H275        H  0.19276634  0.78303043  0.34130314     0.12500
H276        H  0.16658574  0.74870413  0.37748467     0.12100
H277        H  0.23436906  0.75772012  0.42043190     0.11600
H278        H  0.26036458  0.79195457  0.38432978     0.11800
H279        H  0.19381891  0.72180269  0.43637746     0.14500
H280        H  0.14902188  0.72857117  0.42176865     0.13300
H281        H  0.23684140  0.82051411  0.32567750     0.11000
H282        H  0.27091608  0.79839064  0.33237566     0.13000
C283        C  0.23470828  0.77479332  0.14989027     0.19100
C284        C  0.23782516  0.75537510  0.13840170    -0.19000
C285        C  0.22116595  0.73828174  0.11614676    -0.11300
C286        C  0.20071928  0.73991031  0.10479618     0.21300
C287        C  0.19733873  0.75927621  0.11628386    -0.20600
C288        C  0.21416724  0.77654948  0.13868208    -0.11500
C289        C  0.18426965  0.72136541  0.08038906    -0.15600
C290        C  0.16180361  0.71746962  0.07009202    -0.29500
C291        C  0.25353428  0.79236102  0.17340477    -0.03700
C292        C  0.25466503  0.81299471  0.18562655    -0.40300
H293        H  0.25338310  0.75345526  0.14654198     0.12500
H294        H  0.22434838  0.72365937  0.10771546     0.12100
H295        H  0.18206611  0.76146340  0.10785862     0.11600
H296        H  0.21092349  0.79111672  0.14692439     0.11800
H297        H  0.19122594  0.70998576  0.07037307     0.14500
H298        H  0.15394989  0.72815833  0.07957584     0.13300
H299        H  0.26757125  0.78791064  0.18110284     0.11000
H300        H  0.24102121  0.81818886  0.17899999     0.13000
C301        C  0.55375797  0.42346215  0.33341740     0.19100
C302        C  0.57285292  0.42238128  0.34986117    -0.19000
C303        C  0.58883077  0.44176117  0.37068001    -0.11300
C304        C  0.58613068  0.46283512  0.37517632     0.21300
C305        C  0.56790168  0.46443424  0.35732235    -0.20600
C306        C  0.55201515  0.44512457  0.33659576    -0.11500
C307        C  0.60080442  0.48302895  0.39891359    -0.15600
C308        C  0.61789686  0.48334612  0.41882849    -0.29500
C309        C  0.53582489  0.40190217  0.31313134    -0.03700
C310        C  0.51185300  0.39621473  0.30853214    -0.40300
H311        H  0.57491306  0.40613339  0.34730530     0.12500
H312        H  0.60277849  0.43967356  0.38336563     0.12100
H313        H  0.56560508  0.48054720  0.35978606     0.11600
H314        H  0.53834682  0.44724697  0.32315763     0.11800
H315        H  0.59632743  0.49777469  0.40112982     0.14500
H316        H  0.62286217  0.46898649  0.41763525     0.13300
H317        H  0.54230386  0.39043565  0.30218741     0.11000
H318        H  0.50517581  0.40713753  0.32043162     0.13000
C319        C  0.54226104  0.42230358  0.14417990     0.19100
C320        C  0.54416488  0.44399236  0.13104199    -0.19000
C321        C  0.56355108  0.45903387  0.10996155    -0.11300
C322        C  0.58168907  0.45281122  0.10156083     0.21300
C323        C  0.58044949  0.43173223  0.11563140    -0.20600
C324        C  0.56092215  0.41655087  0.13660146    -0.11500
C325        C  0.60224728  0.46832920  0.07870260    -0.15600
C326        C  0.59856887  0.48020061  0.05479375    -0.29500
C327        C  0.52131097  0.40696882  0.16670025    -0.03700
C328        C  0.51301320  0.38265753  0.17371299    -0.40300
H329        H  0.53049343  0.44927173  0.13699410     0.12500
H330        H  0.56446742  0.47573549  0.10062306     0.12100
H331        H  0.59447188  0.42682822  0.11010516     0.11600
H332        H  0.56085888  0.40065075  0.14714397     0.11800
H333        H  0.62034178  0.46946078  0.08111717     0.14500
H334        H  0.57995750  0.47778154  0.05159588     0.13300
H335        H  0.51238019  0.41610118  0.17791033     0.11000
H336        H  0.52124096  0.37300700  0.16220754     0.13000
C337        C  0.34157180  0.97003809  0.35167049     0.19100
C338        C  0.32779160  0.97516287  0.37330746    -0.19000
C339        C  0.34045316  0.99598544  0.39369750    -0.11300
C340        C  0.36707483  0.01216232  0.39225607     0.21300
C341        C  0.38046127  0.00768450  0.36938780    -0.20600
C342        C  0.36791035  0.98705026  0.34923698    -0.11500
C343        C  0.38217431  0.03252064  0.41544854    -0.15600
C344        C  0.37289995  0.04296439  0.43465241    -0.29500
C345        C  0.32887555  0.94694330  0.33172438    -0.03700
C346        C  0.34077698  0.93439061  0.32579491    -0.40300
H347        H  0.30743933  0.96250812  0.37528267     0.12500
H348        H  0.32948544  0.99867587  0.41120345     0.12100
H349        H  0.40088739  0.01994034  0.36749433     0.11600
H350        H  0.37896243  0.98422372  0.33193012     0.11800
H351        H  0.40232654  0.03924579  0.41680161     0.14500
H352        H  0.35324190  0.03784720  0.43285925     0.13300
H353        H  0.31078848  0.94126730  0.32065587     0.11000
H354        H  0.35857917  0.94024840  0.33782707     0.13000
C355        C  0.36923432  0.00800389  0.10295927     0.19100
C356        C  0.35240947  0.98187005  0.09876092    -0.19000
C357        C  0.34480079  0.96531176  0.12429762    -0.11300
C358        C  0.35446376  0.97459464  0.15439861     0.21300
C359        C  0.37091875  0.00077173  0.15861725    -0.20600
C360        C  0.37800762  0.01736381  0.13325151    -0.11500
C361        C  0.35045540  0.95740300  0.18090754    -0.15600
C362        C  0.32927204  0.93453195  0.18499692    -0.29500
C363        C  0.37959522  0.02473822  0.07520660    -0.03700
C364        C  0.38497182  0.04879325  0.07491009    -0.40300
H365        H  0.34563352  0.97421332  0.07556811     0.12500
H366        H  0.33253607  0.94517745  0.12014664     0.12100
H367        H  0.37886401  0.00832673  0.18149583     0.11600
H368        H  0.39142962  0.03734334  0.13710572     0.11800
H369        H  0.36582246  0.96395246  0.19784982     0.14500
H370        H  0.31288679  0.92841622  0.16987649     0.13300
H371        H  0.38269375  0.01688501  0.05416336     0.11000
H372        H  0.37977744  0.05616286  0.09465680     0.13000
C373        C  0.45263050  0.24007198  0.15157187     0.19100
C374        C  0.42911053  0.21916967  0.14200957    -0.19000
C375        C  0.42791460  0.20267359  0.11874157    -0.11300
C376        C  0.45025292  0.20650138  0.10462082     0.21300
C377        C  0.47368173  0.22713603  0.11461415    -0.20600
C378        C  0.47485807  0.24362193  0.13782741    -0.11500
C379        C  0.45026874  0.18995133  0.07923252    -0.15600
C380        C  0.42944622  0.16873541  0.06858111    -0.29500
C381        C  0.45498902  0.25845833  0.17587734    -0.03700
C382        C  0.43567369  0.26117679  0.18500021    -0.40300
H383        H  0.41151427  0.21518762  0.15251448     0.12500
H384        H  0.40936567  0.18717220  0.11206366     0.12100
H385        H  0.49122632  0.23061677  0.10432744     0.11600
H386        H  0.49325698  0.25941141  0.14483544     0.11800
H387        H  0.46846890  0.19565262  0.06867162     0.14500
H388        H  0.41096633  0.16218676  0.07858648     0.13300
H389        H  0.47374078  0.27098043  0.18583696     0.11000
H390        H  0.41696463  0.24963847  0.17464768     0.13000
C391        C  0.42419470  0.23592668  0.35957380     0.19100
C392        C  0.40563069  0.20995059  0.36013196    -0.19000
C393        C  0.40690043  0.19380327  0.38212306    -0.11300
C394        C  0.42674578  0.20341901  0.40431407     0.21300
C395        C  0.44473685  0.22952554  0.40440089    -0.20600
C396        C  0.44342909  0.24561041  0.38255671    -0.11500
C397        C  0.43035424  0.18718973  0.42694493    -0.15600
C398        C  0.41280246  0.16297174  0.43411958    -0.29500
C399        C  0.42322639  0.25217769  0.33442147    -0.03700
C400        C  0.44387454  0.27397894  0.32492849    -0.40300
H401        H  0.39047697  0.20197679  0.34290045     0.12500
H402        H  0.39273532  0.17382241  0.38096561     0.12100
H403        H  0.46007546  0.23756335  0.42139320     0.11600
H404        H  0.45757240  0.26559534  0.38390210     0.11800
H405        H  0.44858476  0.19605938  0.43896438     0.14500
H406        H  0.39394637  0.15377710  0.42385350     0.13300
H407        H  0.40541715  0.24507863  0.32184867     0.11000
H408        H  0.46214395  0.28051613  0.33593901     0.13000
C409        C  0.01367767  0.62582270  0.39246512     0.19100
C410        C  0.99100766  0.62576976  0.39484754    -0.19000
C411        C  0.97129473  0.61233241  0.37316613    -0.11300
C412        C  0.97413730  0.59899591  0.34835254     0.21300
C413        C  0.99738832  0.60026105  0.34520672    -0.20600
C414        C  0.01696790  0.61360475  0.36682942    -0.11500
C415        C  0.95344001  0.58287807  0.32575216    -0.15600
C416        C  0.93166091  0.58273310  0.32261749    -0.29500
C417        C  0.03287531  0.63693747  0.41802745    -0.03700
C418        C  0.04508195  0.62532961  0.42727375    -0.40300
H419        H  0.98809471  0.63514004  0.41432524     0.12500
H420        H  0.95374885  0.61186905  0.37673202     0.12100
H421        H  0.00031046  0.59051987  0.32617630     0.11600
H422        H  0.03454790  0.61394627  0.36375831     0.11800
H423        H  0.95667208  0.57095813  0.31020305     0.14500
H424        H  0.92820231  0.59523448  0.33653671     0.13300
H425        H  0.03509520  0.65297617  0.43119915     0.11000
H426        H  0.04088057  0.60796747  0.41558978     0.13000
C427        C  0.96317659  0.57648347  0.14456643     0.19100
C428        C  0.97910042  0.60268563  0.13959170    -0.19000
C429        C  0.99852875  0.61186400  0.11722465    -0.11300
C430        C  0.00244181  0.59499323  0.09945485     0.21300
C431        C  0.98627978  0.56890606  0.10437520    -0.20600
C432        C  0.96704838  0.55981133  0.12664614    -0.11500
C433        C  0.02283633  0.60318905  0.07556891    -0.15600
C434        C  0.04114369  0.62733179  0.06947677    -0.29500
C435        C  0.94320889  0.56537680  0.16907702    -0.03700
C436        C  0.93338320  0.57742417  0.18438844    -0.40300
H437        H  0.97702416  0.61617648  0.15325916     0.12500
H438        H  0.01032770  0.63210662  0.11420871     0.12100
H439        H  0.98867235  0.55539320  0.09110523     0.11600
H440        H  0.95518064  0.53953318  0.12999306     0.11800
H441        H  0.02278302  0.58822531  0.06221179     0.14500
H442        H  0.04197120  0.64292599  0.08206026     0.13300
H443        H  0.93598566  0.54563483  0.17464507     0.11000
H444        H  0.93940927  0.59685903  0.17888793     0.13000
C445        C  0.77821908  0.54195875  0.15485448     0.19100
C446        C  0.75642131  0.54282633  0.16138546    -0.19000
C447        C  0.74266678  0.54549166  0.13715192    -0.11300
C448        C  0.75020878  0.54667878  0.10593202     0.21300
C449        C  0.77208456  0.54596368  0.09946015    -0.20600
C450        C  0.78614944  0.54391300  0.12369259    -0.11500
C451        C  0.73433802  0.54598750  0.07947708    -0.15600
C452        C  0.72080990  0.55738004  0.07972365    -0.29500
C453        C  0.79134191  0.53717192  0.18053704    -0.03700
C454        C  0.81666663  0.54778052  0.18132910    -0.40300
H455        H  0.74988405  0.54112823  0.18522624     0.12500
H456        H  0.72554867  0.54545086  0.14272748     0.12100
H457        H  0.77804098  0.54655144  0.07552988     0.11600
H458        H  0.80258294  0.54276110  0.11790708     0.11800
H459        H  0.73447006  0.53627316  0.05836492     0.14500
H460        H  0.72220392  0.56918883  0.09932848     0.13300
H461        H  0.77995215  0.52528407  0.19982621     0.11000
H462        H  0.82840922  0.56156725  0.16371551     0.13000
C463        C  0.79129459  0.55692671  0.35457324     0.19100
C464        C  0.79806957  0.57498753  0.37840226    -0.19000
C465        C  0.78015446  0.57207614  0.40082914    -0.11300
C466        C  0.75501924  0.55114136  0.39946645     0.21300
C467        C  0.74823375  0.53356735  0.37513655    -0.20600
C468        C  0.76598271  0.53651880  0.35282673    -0.11500
C469        C  0.73533327  0.54626742  0.42310805    -0.15600
C470        C  0.73566429  0.56428944  0.44103669    -0.29500
C471        C  0.81057898  0.55908580  0.33181189    -0.03700
C472        C  0.80949073  0.53812423  0.32108366    -0.40300
H473        H  0.81738769  0.59093904  0.38017732     0.12500
H474        H  0.78624600  0.58584167  0.41951834     0.12100
H475        H  0.72901072  0.51743116  0.37330161     0.11600
H476        H  0.75978004  0.52271827  0.33413265     0.11800
H477        H  0.71909945  0.52703263  0.42464119     0.14500
H478        H  0.75100441  0.58386089  0.43883769     0.13300
H479        H  0.82564227  0.57767448  0.32425076     0.11000
H480        H  0.79519022  0.51990204  0.33059206     0.13000
C481        C  0.54389381  0.10589994  0.34017431     0.19100
C482        C  0.52066834  0.08353360  0.34621235    -0.19000
C483        C  0.50393643  0.08311909  0.36837554    -0.11300
C484        C  0.50985182  0.10512890  0.38481467     0.21300
C485        C  0.53288169  0.12772101  0.37850804    -0.20600
C486        C  0.54970521  0.12814390  0.35636208    -0.11500
C487        C  0.49247947  0.10322610  0.40995040    -0.15600
C488        C  0.49154445  0.12303908  0.42113032    -0.29500
C489        C  0.56136659  0.10466816  0.31737573    -0.03700
C490        C  0.58512508  0.12380261  0.31120673    -0.40300
H491        H  0.51560245  0.06612833  0.33412165     0.12500
H492        H  0.48639053  0.06543339  0.37293875     0.12100
H493        H  0.53841760  0.14493513  0.39128180     0.11600
H494        H  0.56720510  0.14589877  0.35252689     0.11800
H495        H  0.47992071  0.08453672  0.41975580     0.14500
H496        H  0.50286379  0.14162713  0.41063385     0.13300
H497        H  0.55439668  0.08667899  0.30551081     0.11000
H498        H  0.59298943  0.14205788  0.32247752     0.13000
C499        C  0.56537981  0.12393579  0.14027494     0.19100
C500        C  0.55549585  0.13985185  0.13927893    -0.19000
C501        C  0.53683072  0.13578410  0.11727935    -0.11300
C502        C  0.52772892  0.11567572  0.09571375     0.21300
C503        C  0.53776455  0.09996564  0.09647009    -0.20600
C504        C  0.55661561  0.10421814  0.11809979    -0.11500
C505        C  0.50740468  0.11008880  0.07262540    -0.15600
C506        C  0.50412812  0.12810098  0.06010899    -0.29500
C507        C  0.58425178  0.12803224  0.16508063    -0.03700
C508        C  0.58821459  0.10961101  0.17437917    -0.40300
H509        H  0.56185454  0.15517010  0.15599901     0.12500
H510        H  0.52913494  0.14797659  0.11775836     0.12100
H511        H  0.53118481  0.08447033  0.07997077     0.11600
H512        H  0.56426413  0.09203004  0.11702190     0.11800
H513        H  0.49563935  0.09067542  0.06444092     0.14500
H514        H  0.51684790  0.14779333  0.06659377     0.13300
H515        H  0.59370487  0.14598688  0.17755985     0.11000
H516        H  0.57762564  0.09103595  0.16362245     0.13000
C517        C  0.76669523  0.23900918  0.40127524     0.19100
C518        C  0.74176689  0.21962353  0.40818067    -0.19000
C519        C  0.72484226  0.20533527  0.38408868    -0.11300
C520        C  0.73239223  0.21077643  0.35268840     0.21300
C521        C  0.75698969  0.23070393  0.34576244    -0.20600
C522        C  0.77413561  0.24448583  0.36983980    -0.11500
C523        C  0.71505047  0.19566642  0.32680678    -0.15600
C524        C  0.70265191  0.17028052  0.32701337    -0.29500
C525        C  0.78428527  0.25406114  0.42707798    -0.03700
C526        C  0.80919510  0.26215101  0.42657793    -0.40300
H527        H  0.73554271  0.21531490  0.43222639     0.12500
H528        H  0.70579716  0.19021680  0.38991988     0.12100
H529        H  0.76308446  0.23524616  0.32169959     0.11600
H530        H  0.79306078  0.25973870  0.36385402     0.11800
H531        H  0.71460225  0.20547531  0.30597069     0.14500
H532        H  0.70523757  0.16070659  0.34668420     0.13300
H533        H  0.77632602  0.25762373  0.44764995     0.11000
H534        H  0.81684107  0.25655839  0.40753941     0.13000
C535        C  0.76754470  0.23525578  0.10161626     0.19100
C536        C  0.74422185  0.23382158  0.10472920    -0.19000
C537        C  0.72584980  0.21664684  0.12541841    -0.11300
C538        C  0.73035195  0.20056285  0.14375642     0.21300
C539        C  0.75367889  0.20178623  0.14044307    -0.20600
C540        C  0.77208845  0.21901679  0.11973431    -0.11500
C541        C  0.71040009  0.18352604  0.16638276    -0.15600
C542        C  0.71288498  0.16872646  0.18738791    -0.29500
C543        C  0.78663686  0.25432340  0.07977627    -0.03700
C544        C  0.80645598  0.25343522  0.06841112    -0.40300
H545        H  0.74018954  0.24608375  0.09112486     0.12500
H546        H  0.70810595  0.21617089  0.12735946     0.12100
H547        H  0.75814456  0.18980986  0.15378444     0.11600
H548        H  0.78997926  0.21980720  0.11864480     0.11800
H549        H  0.69294158  0.18381440  0.16634983     0.14500
H550        H  0.72992042  0.16784020  0.18843310     0.13300
H551        H  0.78357310  0.26915876  0.07165564     0.11000
H552        H  0.80927521  0.23812820  0.07476974     0.13000
C553        C  0.86085367  0.44049679  0.35923621     0.19100
C554        C  0.88138777  0.44583616  0.37878288    -0.19000
C555        C  0.87973384  0.42780239  0.39978585    -0.11300
C556        C  0.85749701  0.40367951  0.40145119     0.21300
C557        C  0.83676426  0.39841282  0.38228646    -0.20600
C558        C  0.83840752  0.41652948  0.36121959    -0.11500
C559        C  0.85512484  0.38395062  0.42347246    -0.15600
C560        C  0.87536930  0.38373692  0.43487959    -0.29500
C561        C  0.86437860  0.46022498  0.33649608    -0.03700
C562        C  0.84563830  0.45989978  0.31981723    -0.40300
H563        H  0.89886195  0.46415001  0.37788868     0.12500
H564        H  0.89583647  0.43310306  0.41492157     0.12100
H565        H  0.81935734  0.38006153  0.38327497     0.11600
H566        H  0.82224295  0.41138425  0.34629365     0.11800
H567        H  0.83615746  0.36905849  0.43023612     0.14500
H568        H  0.89436154  0.39786187  0.42735618     0.13300
H569        H  0.88373331  0.47595817  0.33326174     0.11000
H570        H  0.82600633  0.44489039  0.32280310     0.13000
C571        C  0.85626110  0.39839758  0.11007831     0.19100
C572        C  0.83636541  0.40299195  0.11335811    -0.19000
C573        C  0.83797452  0.42066371  0.13520105    -0.11300
C574        C  0.85968844  0.43423272  0.15433722     0.21300
C575        C  0.87935298  0.42934254  0.15133773    -0.20600
C576        C  0.87768858  0.41164065  0.12973152    -0.11500
C577        C  0.86278115  0.45316517  0.17826480    -0.15600
C578        C  0.84682605  0.46162409  0.18234764    -0.29500
C579        C  0.85391002  0.37976980  0.08601904    -0.03700
C580        C  0.87357189  0.37771689  0.07663076    -0.40300
H581        H  0.81951251  0.39294174  0.09883056     0.12500
H582        H  0.82208547  0.42334650  0.13693805     0.12100
H583        H  0.89617358  0.43922481  0.16595776     0.11600
H584        H  0.89323297  0.40838417  0.12909412     0.11800
H585        H  0.87935587  0.46063765  0.19344132     0.14500
H586        H  0.83018225  0.45493104  0.16762879     0.13300
H587        H  0.83557864  0.36811014  0.07462800     0.11000
H588        H  0.89231941  0.38984737  0.08653855     0.13000
C589        C  0.61359135  0.98320514  0.40703334     0.19100
C590        C  0.61705640  0.00709246  0.41308079    -0.19000
C591        C  0.62787520  0.02620825  0.39073165    -0.11300
C592        C  0.63538139  0.02180756  0.36166982     0.21300
C593        C  0.63352625  0.99855627  0.35624035    -0.20600
C594        C  0.62252103  0.97926214  0.37863535    -0.11500
C595        C  0.64314554  0.04046239  0.33602310    -0.15600
C596        C  0.63071160  0.05264707  0.33111964    -0.29500
C597        C  0.59879796  0.96278771  0.43004704    -0.03700
C598        C  0.59669948  0.94001639  0.43057248    -0.40300
H599        H  0.61063276  0.01076769  0.43486479     0.12500
H600        H  0.62972153  0.04422716  0.39585831     0.12100
H601        H  0.63931026  0.99485110  0.33399857     0.11600
H602        H  0.62009017  0.96111601  0.37294100     0.11800
H603        H  0.65701249  0.04207361  0.31913628     0.14500
H604        H  0.61510499  0.04895484  0.34636644     0.13300
H605        H  0.58893802  0.96690482  0.44787782     0.11000
H606        H  0.60737781  0.93553970  0.41455137     0.13000
C607        C  0.61880720  0.01011724  0.15842192     0.19100
C608        C  0.60997889  0.98424056  0.16134007    -0.19000
C609        C  0.60350561  0.96884404  0.13472090    -0.11300
C610        C  0.60507535  0.97903259  0.10484148     0.21300
C611        C  0.61424034  0.00496358  0.10195460    -0.20600
C612        C  0.62136357  0.02045499  0.12843408    -0.11500
C613        C  0.59399960  0.96259339  0.07698054    -0.15600
C614        C  0.59505223  0.94174890  0.07170424    -0.29500
C615        C  0.62257120  0.02551717  0.18671771    -0.03700
C616        C  0.64131949  0.04991574  0.18894033    -0.40300
H617        H  0.60756094  0.97585466  0.18427062     0.12500
H618        H  0.59590990  0.94877295  0.13764263     0.12100
H619        H  0.61521154  0.01310402  0.07918910     0.11600
H620        H  0.62753675  0.04022706  0.12554269     0.11800
H621        H  0.58437200  0.96789171  0.06007193     0.14500
H622        H  0.60637825  0.93724869  0.08675557     0.13300
H623        H  0.60926769  0.01669033  0.20586794     0.11000
H624        H  0.65579048  0.05818578  0.17094967     0.13000
C625        C  0.42379497  0.87961660  0.34544668     0.19100
C626        C  0.41541318  0.85997207  0.36750980    -0.19000
C627        C  0.43227312  0.86023596  0.38978095    -0.11300
C628        C  0.45786127  0.88016127  0.39045255     0.21300
C629        C  0.46609729  0.89968285  0.36844001    -0.20600
C630        C  0.44930302  0.89941394  0.34623835    -0.11500
C631        C  0.47621742  0.88233232  0.41475688    -0.15600
C632        C  0.47331993  0.86297053  0.43242234    -0.29500
C633        C  0.40655453  0.88102921  0.32222377    -0.03700
C634        C  0.38384614  0.86119718  0.31339719    -0.40300
H635        H  0.39574625  0.84476349  0.36839925     0.12500
H636        H  0.42492741  0.84525914  0.40693839     0.12100
H637        H  0.48562317  0.91538260  0.36856700     0.11600
H638        H  0.45625876  0.91487376  0.32971935     0.11800
H639        H  0.49313908  0.90095167  0.41807323     0.14500
H640        H  0.45721173  0.84395201  0.42880346     0.13300
H641        H  0.41326330  0.89928796  0.31128552     0.11000
H642        H  0.37710039  0.84248055  0.32279253     0.13000
C643        C  0.45110536  0.88505580  0.09663585     0.19100
C644        C  0.43366843  0.86258943  0.11227995    -0.19000
C645        C  0.41661979  0.86242962  0.13386008    -0.11300
C646        C  0.41638425  0.88463447  0.14003378     0.21300
C647        C  0.43369988  0.90695873  0.12434409    -0.20600
C648        C  0.45070955  0.90711810  0.10276117    -0.11500
C649        C  0.39948207  0.88571125  0.16382231    -0.15600
C650        C  0.37803855  0.86525362  0.17436210    -0.29500
C651        C  0.46962878  0.88638005  0.07336001    -0.03700
C652        C  0.47564706  0.86851008  0.06969723    -0.40300
H653        H  0.43285341  0.84500141  0.10795329     0.12500
H654        H  0.40407754  0.84495884  0.14601121     0.12100
H655        H  0.43408116  0.92436919  0.12880781     0.11600
H656        H  0.46379888  0.92467057  0.09098369     0.11800
H657        H  0.40516601  0.90423624  0.17327047     0.14500
H658        H  0.37151529  0.84664365  0.16470290     0.13300
H659        H  0.47898445  0.90314128  0.05867796     0.11000
H660        H  0.46713261  0.85177827  0.08429934     0.13000
C661        C  0.12422457  0.53377006  0.35180381     0.19100
C662        C  0.14054174  0.56020024  0.35215180    -0.19000
C663        C  0.13775221  0.57509798  0.37459524    -0.11300
C664        C  0.11870838  0.56375177  0.39755559     0.21300
C665        C  0.10257216  0.53730182  0.39726803    -0.20600
C666        C  0.10534192  0.52247659  0.37488346    -0.11500
C667        C  0.11456194  0.57840150  0.42203567    -0.15600
C668        C  0.13121923  0.60281759  0.42954957    -0.29500
C669        C  0.12742080  0.51843259  0.32739791    -0.03700
C670        C  0.10785798  0.49615525  0.31705993    -0.40300
H671        H  0.15525568  0.56939178  0.33468304     0.12500
H672        H  0.15034449  0.59540179  0.37346091     0.12100
H673        H  0.08782187  0.52797539  0.41467498     0.11600
H674        H  0.09286743  0.50213216  0.37610790     0.11800
H675        H  0.09707758  0.56815226  0.43533175     0.14500
H676        H  0.14921894  0.61346286  0.41752274     0.13300
H677        H  0.14593429  0.52622949  0.31661148     0.11000
H678        H  0.08895013  0.48924343  0.32612340     0.13000
C679        C  0.12453049  0.53417059  0.14821895     0.19100
C680        C  0.14589708  0.55534519  0.13520395    -0.19000
C681        C  0.14309698  0.57120336  0.11434123    -0.11300
C682        C  0.11871922  0.56625398  0.10634230     0.21300
C683        C  0.09748238  0.54544892  0.12006194    -0.20600
C684        C  0.10028354  0.52972377  0.14084047    -0.11500
C685        C  0.11402321  0.58148368  0.08341308    -0.15600
C686        C  0.13213912  0.60229692  0.06861182    -0.29500
C687        C  0.12800917  0.51773480  0.17049740    -0.03700
C688        C  0.10948247  0.49370646  0.17631698    -0.40300
H689        H  0.16480141  0.55946505  0.14092609     0.12500
H690        H  0.16008165  0.58700326  0.10453129     0.12100
H691        H  0.07850234  0.54128697  0.11470587     0.11600
H692        H  0.08331121  0.51441173  0.15141560     0.11800
H693        H  0.09427330  0.57469785  0.07787316     0.14500
H694        H  0.15208177  0.60989940  0.07341731     0.13300
H695        H  0.14596357  0.52582588  0.18301673     0.11000
H696        H  0.09171915  0.48517738  0.16342047     0.13000
C697        C  0.00766572  0.36012263  0.34869822     0.19100
C698        C  0.98135352  0.34585416  0.34343362    -0.19000
C699        C  0.96448078  0.33852764  0.36843924    -0.11300
C700        C  0.97373411  0.34582459  0.39909710     0.21300
C701        C  0.00003846  0.35951242  0.40444816    -0.20600
C702        C  0.01691177  0.36640500  0.37950526    -0.11500
C703        C  0.95660331  0.34220567  0.42523716    -0.15600
C704        C  0.93274623  0.32227628  0.42751622    -0.29500
C705        C  0.02473332  0.37133804  0.32161326    -0.03700
C706        C  0.04908772  0.37751637  0.32152080    -0.40300
H707        H  0.97385945  0.34116665  0.31982175     0.12500
H708        H  0.94428770  0.32849750  0.36354650     0.12100
H709        H  0.00752774  0.36557932  0.42787832     0.11600
H710        H  0.03709689  0.37797326  0.38422775     0.11800
H711        H  0.96401564  0.35659861  0.44346758     0.14500
H712        H  0.92566118  0.30653286  0.41122982     0.13300
H713        H  0.01705704  0.37543477  0.30105477     0.11000
H714        H  0.05673303  0.37174982  0.34046820     0.13000
C715        C  0.97207290  0.33684909  0.10148591     0.19100
C716        C  0.99835557  0.34903339  0.09622973    -0.19000
C717        C  0.01552530  0.35691269  0.12134959    -0.11300
C718        C  0.00670218  0.35321986  0.15227525     0.21300
C719        C  0.98038569  0.34007294  0.15751720    -0.20600
C720        C  0.96320090  0.33172153  0.13241549    -0.11500
C721        C  0.02418685  0.36646723  0.17898795    -0.15600
C722        C  0.04837843  0.37200150  0.18094834    -0.29500
C723        C  0.95495671  0.33329405  0.07479673    -0.03700
C724        C  0.93003622  0.31531771  0.07339391    -0.40300
H725        H  0.00567636  0.35343469  0.07262597     0.12500
H726        H  0.03569470  0.36745574  0.11650784     0.12100
H727        H  0.97315005  0.33728037  0.18113557     0.11600
H728        H  0.94313626  0.32286160  0.13734670     0.11800
H729        H  0.01687538  0.37272801  0.19773063     0.14500
H730        H  0.05570061  0.36429143  0.16411999     0.13300
H731        H  0.96326787  0.34659820  0.05554804     0.11000
H732        H  0.92162870  0.30047336  0.09087087     0.13000
C733        C  0.37638993  0.36676382  0.33977289     0.19100
C734        C  0.35932727  0.37505428  0.33497046    -0.19000
C735        C  0.35181427  0.38428961  0.36003987    -0.11300
C736        C  0.36188199  0.38604785  0.39014234     0.21300
C737        C  0.37865547  0.37745866  0.39492045    -0.20600
C738        C  0.38559701  0.36762922  0.37014035    -0.11500
C739        C  0.35779384  0.39932816  0.41622919    -0.15600
C740        C  0.33580518  0.39830097  0.42187906    -0.29500
C741        C  0.38663643  0.35997298  0.31260381    -0.03700
C742        C  0.39242620  0.34181695  0.31398865    -0.40300
H743        H  0.35223152  0.37485301  0.31169740     0.12500
H744        H  0.33923649  0.39124974  0.35556612     0.12100
H745        H  0.38688986  0.37891436  0.41782139     0.11600
H746        H  0.39923446  0.36196264  0.37448041     0.11800
H747        H  0.37355965  0.40969873  0.43244522     0.14500
H748        H  0.31907192  0.38627071  0.40773841     0.13300
H749        H  0.38985083  0.37047808  0.29101900     0.11000
H750        H  0.38724390  0.32978095  0.33449641     0.13000
C751        C  0.37590541  0.35781579  0.14202286     0.19100
C752        C  0.36706206  0.37440367  0.14596618    -0.19000
C753        C  0.35836625  0.38180473  0.12035432    -0.11300
C754        C  0.35900458  0.37325267  0.09016933     0.21300
C755        C  0.36745373  0.35633870  0.08619210    -0.20600
C756        C  0.37547655  0.34832055  0.11202257    -0.11500
C757        C  0.35392601  0.38435627  0.06257290    -0.15600
C758        C  0.33434463  0.38806179  0.06149002    -0.29500
C759        C  0.38890530  0.35394744  0.16861005    -0.03700
C760        C  0.38905782  0.33259465  0.17378741    -0.40300
H761        H  0.36764054  0.38227090  0.16879567     0.12500
H762        H  0.35251683  0.39535450  0.12390026     0.12100
H763        H  0.36842415  0.34985308  0.06301821     0.11600
H764        H  0.38278255  0.33598827  0.10824437     0.11800
H765        H  0.36714122  0.39040934  0.04316947     0.14500
H766        H  0.32002479  0.38026883  0.07968799     0.13300
H767        H  0.39905382  0.36971522  0.18480699     0.11000
H768        H  0.37730584  0.31569671  0.15988047     0.13000
C769        C  0.21157330  0.46238789  0.35437455     0.19100
C770        C  0.22486120  0.48342106  0.37423958    -0.19000
C771        C  0.24239817  0.48456811  0.39610456    -0.11300
C772        C  0.24719152  0.46480291  0.39840205     0.21300
C773        C  0.23474336  0.44429286  0.37738520    -0.20600
C774        C  0.21708619  0.44306131  0.35576393    -0.11500
C775        C  0.26529529  0.46632627  0.42279026    -0.15600
C776        C  0.26584660  0.44600183  0.43282226    -0.29500
C777        C  0.19293058  0.46159133  0.33153299    -0.03700
C778        C  0.17291219  0.43977953  0.32073091    -0.40300
H779        H  0.22136068  0.49882771  0.37317816     0.12500
H780        H  0.25199423  0.50079629  0.41156487     0.12100
H781        H  0.23872000  0.42924527  0.37706434     0.11600
H782        H  0.20818020  0.42717396  0.33976356     0.11800
H783        H  0.27782929  0.48457985  0.43376477     0.14500
H784        H  0.25280870  0.42742664  0.42312778     0.13300
H785        H  0.19563323  0.47953647  0.32370630     0.11000
H786        H  0.16936166  0.42177942  0.32956818     0.13000
C787        C  0.20824009  0.45357350  0.14698085     0.19100
C788        C  0.22408128  0.47528190  0.12939533    -0.19000
C789        C  0.24108985  0.47541768  0.10789768    -0.11300
C790        C  0.24279643  0.45389011  0.10348386     0.21300
C791        C  0.22704224  0.43207502  0.12120111    -0.20600
C792        C  0.20997354  0.43193842  0.14277109    -0.11500
C793        C  0.26187190  0.45562910  0.08092241    -0.15600
C794        C  0.26260372  0.43578151  0.06929449    -0.29500
C795        C  0.19114678  0.45477941  0.17038406    -0.03700
C796        C  0.17057903  0.43418169  0.18211131    -0.40300
H797        H  0.22332975  0.49224859  0.13232709     0.12500
H798        H  0.25307396  0.49253914  0.09469946     0.12100
H799        H  0.22818906  0.41530906  0.11918809     0.11600
H800        H  0.19879022  0.41508181  0.15663255     0.11800
H801        H  0.27558334  0.47448571  0.07243453     0.14500
H802        H  0.24853094  0.41654228  0.07589153     0.13300
H803        H  0.19553360  0.47340049  0.17793899     0.11000
H804        H  0.16529619  0.41544504  0.17405212     0.13000
C805        C  0.62274212  0.63855481  0.34018290     0.19100
C806        C  0.63559944  0.62556460  0.33628872    -0.19000
C807        C  0.64361091  0.61772912  0.36231013    -0.11300
C808        C  0.63822712  0.62214860  0.39271178     0.21300
C809        C  0.62579864  0.63554209  0.39661438    -0.20600
C810        C  0.61841723  0.64398167  0.37063705    -0.11500
C811        C  0.64182054  0.60975127  0.42021182    -0.15600
C812        C  0.66166227  0.60658277  0.42400540    -0.29500
C813        C  0.61099615  0.64313156  0.31258822    -0.03700
C814        C  0.60802768  0.66312618  0.31019972    -0.40300
H815        H  0.63876779  0.62081653  0.31305785     0.12500
H816        H  0.65257619  0.60687011  0.35861922     0.12100
H817        H  0.62106766  0.63876284  0.41982791     0.11600
H818        H  0.60795626  0.65335617  0.37442163     0.11800
H819        H  0.62712814  0.60251365  0.43798775     0.14500
H820        H  0.67765694  0.61549215  0.40809499     0.13300
H821        H  0.60383623  0.62905511  0.29400776     0.11000
H822        H  0.61673731  0.67825625  0.32741548     0.13000
C823        C  0.63579832  0.61879324  0.09936078     0.19100
C824        C  0.63996503  0.64334014  0.10002049    -0.19000
C825        C  0.62597903  0.64929511  0.12026375    -0.11300
C826        C  0.60781630  0.63075248  0.14046780     0.21300
C827        C  0.60447958  0.60655353  0.14052346    -0.20600
C828        C  0.61841393  0.60067957  0.12047879    -0.11500
C829        C  0.59159262  0.63528807  0.16167576    -0.15600
C830        C  0.59696271  0.65822474  0.17152746    -0.29500
C831        C  0.64844750  0.61172659  0.07545591    -0.03700
C832        C  0.63555949  0.58890230  0.06158962    -0.40300
H833        H  0.65332381  0.65761659  0.08401831     0.12500
H834        H  0.62894957  0.66809919  0.11930556     0.12100
H835        H  0.59090253  0.59201045  0.15611797     0.11600
H836        H  0.61533065  0.58179789  0.12128539     0.11800
H837        H  0.57523863  0.61856969  0.17157660     0.14500
H838        H  0.61386925  0.67529340  0.16347242     0.13300
H839        H  0.66746172  0.62571410  0.06770372     0.11000
H840        H  0.61582438  0.57600635  0.06788300     0.13000
C841        C  0.40809570  0.54101402  0.11231641     0.19100
C842        C  0.41896353  0.56735701  0.11305850    -0.19000
C843        C  0.43771853  0.58229953  0.13517844    -0.11300
C844        C  0.44579683  0.57110732  0.15736802     0.21300
C845        C  0.43453429  0.54471886  0.15702059    -0.20600
C846        C  0.41575980  0.52979621  0.13499207    -0.11500
C847        C  0.46653843  0.58630061  0.18033007    -0.15600
C848        C  0.47260036  0.60940400  0.19038747    -0.29500
C849        C  0.38934278  0.52587724  0.08724361    -0.03700
C850        C  0.38659972  0.50425163  0.07617193    -0.40300
H851        H  0.41343998  0.57648957  0.09589573     0.12500
H852        H  0.44631129  0.60261735  0.13415521     0.12100
H853        H  0.44027331  0.53558766  0.17391590     0.11600
H854        H  0.40728266  0.50948725  0.13591586     0.11800
H855        H  0.47661307  0.57775957  0.19007202     0.14500
H856        H  0.46164563  0.61751666  0.18246292     0.13300
H857        H  0.37912820  0.53369852  0.07595644     0.11000
H858        H  0.39825524  0.49742337  0.08573107     0.13000
C859        C  0.42531898  0.54841982  0.40774926     0.19100
C860        C  0.45145979  0.55770838  0.40687273    -0.19000
C861        C  0.46721891  0.57700597  0.38618055    -0.11300
C862        C  0.45703603  0.58721368  0.36559336     0.21300
C863        C  0.43106418  0.57851051  0.36709263    -0.20600
C864        C  0.41527547  0.55915334  0.38770444    -0.11500
C865        C  0.47268817  0.60622813  0.34154661    -0.15600
C866        C  0.49289311  0.60716125  0.32838559    -0.29500
C867        C  0.40918087  0.52711800  0.42918209    -0.03700
C868        C  0.38618170  0.52165465  0.43886408    -0.40300
H869        H  0.45971774  0.54994570  0.42220469     0.12500
H870        H  0.48732136  0.58382774  0.38638009     0.12100
H871        H  0.42279686  0.58609849  0.35148397     0.11600
H872        H  0.39517987  0.55224379  0.38701839     0.11800
H873        H  0.46602482  0.61813530  0.33238110     0.14500
H874        H  0.49869337  0.59416443  0.33587119     0.13300
H875        H  0.41697132  0.51616898  0.43829882     0.11000
H876        H  0.37869055  0.53330079  0.43166228     0.13000
C877        C  0.55139840  0.75411871  0.14058532     0.19100
C878        C  0.57168405  0.77588360  0.12704524    -0.19000
C879        C  0.56719536  0.79079832  0.10658702    -0.11300
C880        C  0.54217140  0.78419645  0.09914408     0.21300
C881        C  0.52191684  0.76190167  0.11179271    -0.20600
C882        C  0.52640896  0.74699840  0.13221028    -0.11500
C883        C  0.53644980  0.79930453  0.07718478    -0.15600
C884        C  0.55320153  0.82372101  0.07048775    -0.29500
C885        C  0.55683300  0.73917993  0.16315950    -0.03700
C886        C  0.54044309  0.72534866  0.18587944    -0.40300
H887        H  0.59108991  0.78151813  0.13256620     0.12500
H888        H  0.58344421  0.80717294  0.09634938     0.12100
H889        H  0.50249789  0.75599965  0.10590541     0.11600
H890        H  0.51021623  0.72975883  0.14101662     0.11800
H891        H  0.51784693  0.78993816  0.06604239     0.14500
H892        H  0.57158121  0.83360119  0.08204859     0.13300
H893        H  0.57507257  0.74050821  0.16196190     0.11000
H894        H  0.52283513  0.72514892  0.18815117     0.13000
C895        C  0.55032901  0.75296745  0.36272437     0.19100
C896        C  0.53464570  0.74742166  0.38883923    -0.19000
C897        C  0.53786581  0.76671925  0.40882291    -0.11300
C898        C  0.55671756  0.79207966  0.40287371     0.21300
C899        C  0.57283090  0.79764007  0.37725646    -0.20600
C900        C  0.56952699  0.77833613  0.35711414    -0.11500
C901        C  0.55964265  0.81286266  0.42313766    -0.15600
C902        C  0.53925510  0.81221413  0.43510407    -0.29500
C903        C  0.54508379  0.73208071  0.34094077    -0.03700
C904        C  0.56246445  0.73320289  0.32110376    -0.40300
H905        H  0.51976611  0.72809313  0.39371492     0.12500
H906        H  0.52559370  0.76176249  0.42896281     0.12100
H907        H  0.58746461  0.81704042  0.37227519     0.11600
H908        H  0.58154809  0.78355648  0.33674748     0.11800
H909        H  0.57858621  0.82894004  0.42775794     0.14500
H910        H  0.52038296  0.79669113  0.42882042     0.13300
H911        H  0.52613540  0.71526320  0.34112078     0.11000
H912        H  0.58176439  0.74935666  0.32149355     0.13000
Fe913      Fe  0.54399768  0.63292022  0.74837244     1.65800
Fe914      Fe  0.51724157  0.66835123  0.76297956     1.73200
Fe915      Fe  0.58055805  0.69766465  0.74680702     1.54400
O916        O  0.59716023  0.68627114  0.78005834    -0.81300
O917        O  0.52671031  0.69678474  0.73109376    -0.79600
O918        O  0.57581047  0.64398546  0.77613606    -0.83800
O919        O  0.56533413  0.64228183  0.70849836    -0.78600
O920        O  0.57518546  0.71736177  0.78177335    -0.80400
O921        O  0.49550634  0.64276143  0.72842988    -0.83200
C922        C  0.58472528  0.66234530  0.69876984     0.97600
C923        C  0.59363617  0.66477150  0.78757827     1.05000
O924        O  0.54723538  0.66624491  0.75264681    -1.12100
O925        O  0.50359520  0.64019330  0.79621818    -0.74600
O926        O  0.52247656  0.61842819  0.78797803    -0.78100
O927        O  0.59238645  0.68379284  0.71094844    -0.78700
C928        C  0.50747250  0.62258149  0.80310930     0.96500
O929        O  0.51173489  0.61838479  0.72017503    -0.76700
O930        O  0.53543143  0.69431472  0.79860887    -0.81900
C931        C  0.54489589  0.71038889  0.71271076     0.99100
C932        C  0.55774059  0.71354487  0.80054741     1.05100
O933        O  0.56599236  0.71128889  0.71349251    -0.77500
C934        C  0.49525790  0.62443234  0.71480155     1.03400
Fe935      Fe  0.36275352  0.45407711  0.49752789     1.65800
Fe936      Fe  0.32526677  0.47809728  0.00418336     1.73200
Fe937      Fe  0.29789328  0.41395828  0.99584768     1.54400
O938        O  0.31288195  0.40255140  0.96035526    -0.81300
O939        O  0.29896408  0.46346365  0.54115439    -0.79600
O940        O  0.35420718  0.43153810  0.95711552    -0.83800
O941        O  0.35319952  0.42333399  0.52591327    -0.78600
O942        O  0.28209094  0.42480720  0.96157401    -0.80400
O943        O  0.35356631  0.49550451  0.54139494    -0.83200
C944        C  0.33308072  0.40574620  0.53850957     0.97600
C945        C  0.33444066  0.41164527  0.94746930     1.05000
O946        O  0.32851656  0.44819646  0.99899609    -1.12100
O947        O  0.35061949  0.49802030  0.96950605    -0.74600
O948        O  0.37780790  0.48464826  0.96957792    -0.78100
O949        O  0.31114951  0.40150381  0.53194786    -0.78700
C950        C  0.37075813  0.49951435  0.96025869     0.96500
O951        O  0.37569493  0.47644302  0.53671954    -0.76700
O952        O  0.29648422  0.46566581  0.97050382    -0.81900
C953        C  0.28139844  0.44107857  0.54743128     0.99100
C954        C  0.28231045  0.44500771  0.95579924     1.05100
O955        O  0.27879402  0.42191702  0.53306634    -0.77500
C956        C  0.37113353  0.49183694  0.55023090     1.03400
Fe957      Fe  0.07434575  0.43361013  0.74933404     1.65800
Fe958      Fe  0.13957944  0.46722115  0.74955794     1.73200
Fe959      Fe  0.10613279  0.40198703  0.75216858     1.54400
O960        O  0.07888899  0.38678980  0.78709241    -0.81300
O961        O  0.15480427  0.45519498  0.71551536    -0.79600
O962        O  0.05822718  0.40734189  0.78423844    -0.83800
O963        O  0.05812766  0.40562586  0.71590443    -0.78600
O964        O  0.13337479  0.41480716  0.78720485    -0.80400
O965        O  0.12820904  0.48233667  0.71428061    -0.83200
C966        C  0.06154455  0.38829297  0.70616422     0.97600
C967        C  0.06164982  0.39064095  0.79617623     1.05000
O968        O  0.10673124  0.43427789  0.75029160    -1.12100
O969        O  0.12856045  0.48325351  0.78386933    -0.74600
O970        O  0.08621644  0.46123794  0.78317184    -0.78100
O971        O  0.07883853  0.38501905  0.71694813    -0.78700
C972        C  0.10728151  0.47881167  0.79397207     1.00100
O973        O  0.08591239  0.45976824  0.71402631    -0.76700
O974        O  0.15564496  0.45695196  0.78468138    -0.81900
C975        C  0.15086294  0.43382520  0.70663096     0.99100
C976        C  0.15134950  0.43626593  0.79648418     1.05100
O977        O  0.13348597  0.41300309  0.71799833    -0.77500
C978        C  0.10688191  0.47753315  0.70364993     1.03400
Fe979      Fe  0.53520629  0.90374202  0.49971706     1.65800
Fe980      Fe  0.51049709  0.84281941  0.00323525     1.73200
Fe981      Fe  0.57503273  0.88211775  0.00027745     1.54400
O982        O  0.58676339  0.90648893  0.96265072    -0.81300
O983        O  0.52567794  0.82791655  0.53708787    -0.79600
O984        O  0.56640790  0.92695288  0.96939529    -0.83800
O985        O  0.56004768  0.92062624  0.53618341    -0.78600
O986        O  0.56455623  0.85237918  0.96860435    -0.80400
O987        O  0.49449127  0.84973869  0.54209949    -0.83200
C988        C  0.58077269  0.92213109  0.54340687     0.97600
C989        C  0.58324520  0.92436654  0.95612245     1.05000
O990        O  0.54077308  0.87709748  0.00103349    -1.12100
O991        O  0.48974034  0.85099676  0.97188949    -0.74600
O992        O  0.51285213  0.89224060  0.96128239    -0.78100
O993        O  0.58869029  0.90917158  0.53003332    -0.78700
C994        C  0.49400613  0.87018657  0.95598620     0.96500
O995        O  0.50550403  0.88925516  0.53131172    -0.76700
O996        O  0.52215362  0.83102023  0.96572320    -0.81900
C997        C  0.54822106  0.83625236  0.54674664     0.99100
C998        C  0.54352126  0.83512165  0.95682002     1.05100
O999        O  0.56733497  0.85588580  0.53573319    -0.77500
C1000       C  0.49282744  0.86898140  0.54685408     1.03400
Fe1001     Fe  0.90532121  0.35109139  0.50063402     1.65800
Fe1002     Fe  0.83829855  0.31792591  0.00343001     1.73200
Fe1003     Fe  0.86950827  0.28536685  0.00132093     1.54400
O1004       O  0.89860705  0.29853082  0.96902345    -0.81300
O1005       O  0.82552847  0.29355542  0.53656292    -0.79600
O1006       O  0.91805553  0.34060354  0.96844380    -0.83800
O1007       O  0.92088007  0.33694088  0.53108347    -0.78600
O1008       O  0.84461891  0.27250570  0.96369029    -0.80400
O1009       O  0.85414102  0.34809206  0.53547387    -0.83200
C1010       C  0.91440938  0.31549252  0.54254022     0.97600
C1011       C  0.91510934  0.32001114  0.95828947     1.05000
O1012       O  0.87035343  0.31771505  0.00339332    -1.12100
O1013       O  0.85031010  0.34507881  0.96859993    -0.74600
O1014       O  0.89240278  0.36783313  0.97406063    -0.78100
O1015       O  0.89496623  0.29500555  0.53323413    -0.78700
C1016       C  0.87198610  0.36383572  0.96148577     0.96500
O1017       O  0.89589779  0.36457261  0.53875558    -0.76700
O1018       O  0.82140769  0.29034899  0.96887234    -0.81900
C1019       C  0.82610442  0.27366849  0.54169390     0.99100
C1020       C  0.82641016  0.27519365  0.95531338     1.05100
O1021       O  0.84063290  0.26845855  0.52703362    -0.77500
C1022       C  0.87564878  0.36291946  0.54800839     1.03400
Fe1023     Fe  0.61279347  0.08100364  0.74881217     1.65800
Fe1024     Fe  0.65053437  0.14513442  0.74442666     1.73200
Fe1025     Fe  0.67660665  0.10870687  0.75437592     1.54400
O1026       O  0.65923507  0.07855037  0.78578957    -0.81300
O1027       O  0.67663159  0.15542525  0.70912523    -0.79600
O1028       O  0.61931618  0.06904945  0.79028650    -0.83800
O1029       O  0.62438798  0.06032865  0.72294935    -0.78600
O1030       O  0.68879588  0.13277424  0.79222351    -0.80400
O1031       O  0.62203906  0.13266601  0.70994369    -0.83200
C1032       C  0.64495719  0.06539425  0.70973727     0.97600
C1033       C  0.63786153  0.06738383  0.79946293     1.05000
O1034       O  0.64663950  0.11169999  0.74910020    -1.12100
O1035       O  0.62482381  0.13824974  0.77949677    -0.74600
O1036       O  0.59632966  0.09706211  0.77455799    -0.78100
O1037       O  0.66631133  0.08465553  0.71669697    -0.78700
C1038       C  0.60373217  0.11866147  0.78640547     0.96500
O1039       O  0.60315522  0.09059761  0.70754514    -0.76700
O1040       O  0.67954137  0.16187882  0.77823487    -0.81900
C1041       C  0.69578386  0.15308354  0.70675695     0.99100
C1042       C  0.69049855  0.15391538  0.79613938     1.05100
O1043       O  0.69892618  0.13821005  0.72395463    -0.77500
C1044       C  0.60647962  0.11131380  0.69736573     1.03400
Fe1045     Fe  0.89137782  0.52044092  0.75496886     1.65800
Fe1046     Fe  0.82848964  0.49950143  0.74947346     1.73200
Fe1047     Fe  0.87215871  0.56307909  0.75123341     1.54400
O1048       O  0.89553817  0.57337123  0.79001035    -0.81300
O1049       O  0.81750923  0.51731223  0.71727882    -0.79600
O1050       O  0.91301629  0.54984922  0.78604648    -0.83800
O1051       O  0.91006809  0.54324009  0.71767855    -0.78600
O1052       O  0.84227694  0.55561249  0.78161455    -0.80400
O1053       O  0.83567520  0.48292683  0.71251426    -0.83200
C1054       C  0.91423325  0.56462379  0.70880810     0.97600
C1055       C  0.91182493  0.56789501  0.79832935     1.05000
O1056       O  0.86401938  0.52774633  0.75197705    -1.12100
O1057       O  0.83377894  0.47725636  0.78161987    -0.74600
O1058       O  0.87510157  0.49676810  0.79261177    -0.78100
O1059       O  0.90296234  0.57498588  0.72076624    -0.78700
C1060       C  0.85227481  0.47929240  0.79740721     0.96500
O1061       O  0.87410960  0.49004676  0.72393903    -0.76700
O1062       O  0.81815979  0.51352181  0.78588358    -0.81900
C1063       C  0.82830359  0.53878944  0.70395073     0.99100
C1064       C  0.82389197  0.53560999  0.79379162     1.05100
O1065       O  0.84998070  0.55694998  0.71214900    -0.77500
C1066       C  0.85365353  0.47907018  0.70798454     1.03400
Fe1067     Fe  0.43816448  0.08352166  0.49840768     1.65800
Fe1068     Fe  0.46225630  0.14660292  0.99271765     1.73200
Fe1069     Fe  0.39838862  0.10482185  0.00239007     1.54400
O1070       O  0.38226144  0.07419303  0.97185553    -0.81300
O1071       O  0.44921692  0.15807001  0.53490382    -0.79600
O1072       O  0.41120821  0.06360592  0.96356670    -0.83800
O1073       O  0.41285001  0.06327951  0.53377503    -0.78600
O1074       O  0.40183745  0.12774974  0.96489488    -0.80400
O1075       O  0.48393419  0.14136781  0.52491631    -0.83200
C1076       C  0.39583589  0.06459199  0.54867079     0.97600
C1077       C  0.38980195  0.06115792  0.95804497     1.05000
O1078       O  0.43320485  0.11146859  0.99726421    -1.12100
O1079       O  0.47676266  0.13799830  0.95433801    -0.74600
O1080       O  0.46501879  0.09767650  0.96085672    -0.78100
O1081       O  0.38901090  0.08008106  0.54164766    -0.78700
C1082       C  0.47727182  0.11853937  0.94636340     0.96500
O1083       O  0.46676932  0.09990873  0.53177252    -0.76700
O1084       O  0.44315652  0.15686517  0.96210814    -0.81900
C1085       C  0.42785390  0.15159104  0.54672807     0.99100
C1086       C  0.42030204  0.14785597  0.95338870     1.05100
O1087       O  0.40706400  0.13294764  0.53670318    -0.77500
C1088       C  0.48376282  0.12277024  0.53760767     1.03400
Fe1089     Fe  0.62828088  0.54074582  0.48635760     1.65800
Fe1090     Fe  0.66933781  0.51903937  0.00022977     1.73200
Fe1091     Fe  0.69169665  0.58237965  0.00390213     1.54400
O1092       O  0.68473712  0.59555874  0.96277174    -0.81300
O1093       O  0.69429170  0.53535687  0.53566421    -0.79600
O1094       O  0.64277725  0.57162668  0.95711020    -0.83800
O1095       O  0.62870130  0.56116112  0.52424590    -0.78600
O1096       O  0.71728448  0.57677004  0.97857024    -0.80400
O1097       O  0.63945865  0.50126302  0.53312336    -0.83200
C1098       C  0.64561638  0.58142621  0.53735063     0.97600
C1099       C  0.66419957  0.59039667  0.94939607     1.05000
O1100       O  0.66374144  0.54735209  0.99642217    -1.12100
O1101       O  0.64416486  0.49782249  0.96465897    -0.74600
O1102       O  0.62759091  0.51967729  0.94622119    -0.78100
O1103       O  0.66907527  0.59260483  0.53036867    -0.78700
C1104       C  0.63120738  0.50135204  0.94448274     0.96500
O1105       O  0.61044955  0.50889031  0.51397765    -0.76700
O1106       O  0.69811229  0.53537596  0.96753440    -0.81900
C1107       C  0.70513328  0.55582499  0.55115220     0.99100
C1108       C  0.71624844  0.55823526  0.96407335     1.05100
O1109       O  0.70288413  0.57449086  0.54418141    -0.77500
C1110       C  0.61713304  0.49757375  0.53276953     1.03400
Fe1111     Fe  0.45135869  0.36430125  0.74166623     1.65800
Fe1112     Fe  0.47686986  0.32756523  0.74912383     1.73200
Fe1113     Fe  0.41257364  0.30053520  0.74886075     1.54400
O1114       O  0.40266505  0.31578696  0.78483273    -0.81300
O1115       O  0.46019708  0.29477382  0.72195053    -0.79600
O1116       O  0.42125401  0.35624993  0.77071866    -0.83800
O1117       O  0.42822656  0.35330039  0.70332606    -0.78600
O1118       O  0.42243457  0.28262618  0.78257347    -0.80400
O1119       O  0.49232333  0.34795022  0.70882570    -0.83200
C1120       C  0.40650976  0.33377889  0.69861453     0.97600
C1121       C  0.40602155  0.33769584  0.78777582     1.05000
O1122       O  0.44692756  0.33074858  0.74642439    -1.12100
O1123       O  0.49782056  0.36015089  0.77648905    -0.74600
O1124       O  0.47455625  0.37802394  0.78000622    -0.78100
O1125       O  0.39769497  0.31382823  0.71510499    -0.78700
C1126       C  0.49343494  0.37645629  0.78801126     0.96500
O1127       O  0.48241562  0.37768249  0.71186893    -0.76700
O1128       O  0.46430630  0.30689941  0.78969216    -0.81900
C1129       C  0.43889379  0.28099925  0.70823972     0.99100
C1130       C  0.44273589  0.28832292  0.79727459     1.05100
O1131       O  0.41973670  0.28284589  0.71344085    -0.77500
C1132       C  0.49497785  0.36872376  0.69999902     1.03400
Fe1133     Fe  0.08595813  0.61337695  0.50123957     1.65800
Fe1134     Fe  0.14727593  0.66083663  0.99834508     1.73200
Fe1135     Fe  0.09983595  0.67419571  0.00102449     1.54400
O1136       O  0.07075614  0.65406989  0.96814876    -0.81300
O1137       O  0.15550435  0.68503743  0.53692709    -0.79600
O1138       O  0.06674235  0.61620645  0.96301446    -0.83800
O1139       O  0.06233624  0.61685934  0.53237829    -0.78600
O1140       O  0.12315041  0.69511954  0.96446548    -0.80400
O1141       O  0.14399178  0.63363462  0.53083990    -0.83200
C1142       C  0.06083734  0.63470058  0.54467438     0.97600
C1143       C  0.06146162  0.63259709  0.95474384     1.05000
O1144       O  0.11090001  0.64940474  0.00000362    -1.12100
O1145       O  0.14277669  0.63791769  0.96075686    -0.74600
O1146       O  0.10495525  0.60351086  0.96932011    -0.78100
O1147       O  0.07523230  0.65761930  0.53681488    -0.78700
C1148       C  0.12589786  0.61513432  0.95477658     0.96500
O1149       O  0.10268840  0.60692718  0.53875520    -0.76700
O1150       O  0.15611372  0.68977629  0.96705419    -0.81900
C1151       C  0.14714018  0.69889472  0.54593474     0.99100
C1152       C  0.14503235  0.70051500  0.95579693     1.05100
O1153       O  0.12779452  0.69788545  0.53361119    -0.77500
C1154       C  0.12578788  0.61495397  0.54497305     1.03400
Fe1155     Fe  0.35860265  0.89966922  0.74953334     1.65800
Fe1156     Fe  0.31912467  0.83553042  0.75046993     1.73200
Fe1157     Fe  0.29425447  0.87395918  0.75678450     1.54400
O1158       O  0.31211423  0.90296825  0.78996113    -0.81300
O1159       O  0.28940046  0.82228235  0.71914690    -0.79600
O1160       O  0.35337451  0.91663494  0.78711606    -0.83800
O1161       O  0.34804311  0.91833047  0.71901418    -0.78600
O1162       O  0.27882578  0.84806269  0.79323485    -0.80400
O1163       O  0.34336597  0.84403104  0.71275422    -0.83200
C1164       C  0.32749181  0.91620576  0.70962993     0.97600
C1165       C  0.33498949  0.91717216  0.79908826     1.05000
O1166       O  0.32392993  0.86968697  0.75224363    -1.12100
O1167       O  0.34805531  0.84387980  0.78189299    -0.74600
O1168       O  0.37421271  0.88559555  0.77985832    -0.78100
O1169       O  0.30591497  0.89986259  0.72046577    -0.78700
C1170       C  0.36820549  0.86400161  0.79019554     0.96500
O1171       O  0.36824093  0.88607023  0.71166921    -0.76700
O1172       O  0.29469683  0.82305449  0.78794800    -0.81900
C1173       C  0.27269900  0.82757157  0.71211067     0.99100
C1174       C  0.28064471  0.82936294  0.80169553     1.05100
O1175       O  0.27222327  0.84600141  0.72427914    -0.77500
C1176       C  0.36144617  0.86429950  0.70104919     1.03400
C1177       C  0.22829336  0.79237127  0.86245457     0.19100
C1178       C  0.20176205  0.77830687  0.85919366    -0.19000
C1179       C  0.18672455  0.75869569  0.88008719    -0.11300
C1180       C  0.19802778  0.75312444  0.90501079     0.21300
C1181       C  0.22449174  0.76790650  0.90885074    -0.20600
C1182       C  0.23946474  0.78737563  0.88795069    -0.11500
C1183       C  0.18329630  0.73161272  0.92682880    -0.15600
C1184       C  0.15821093  0.72061265  0.93207245    -0.29500
C1185       C  0.24406983  0.81119040  0.83818113    -0.03700
C1186       C  0.26601139  0.81372965  0.82862257    -0.40300
H1187       H  0.19274464  0.78182598  0.83970652     0.12500
H1188       H  0.16646699  0.74752503  0.87595828     0.12100
H1189       H  0.23368532  0.76421092  0.92797587     0.11600
H1190       H  0.25982365  0.79833519  0.89157108     0.11800
H1191       H  0.19395025  0.72531269  0.94033210     0.14500
H1192       H  0.14735363  0.72752734  0.92043797     0.13300
H1193       H  0.23634815  0.82103288  0.82576996     0.11000
H1194       H  0.27236597  0.80195411  0.83903595     0.13000
C1195       C  0.23066096  0.77174671  0.65594381     0.19100
C1196       C  0.22837575  0.74817645  0.65175863    -0.19000
C1197       C  0.21161319  0.73096321  0.62964938    -0.11300
C1198       C  0.19649170  0.73669648  0.61111613     0.21300
C1199       C  0.19833858  0.76015686  0.61543696    -0.20600
C1200       C  0.21530227  0.77755927  0.63766385    -0.11500
C1201       C  0.18069177  0.71829540  0.58625808    -0.15600
C1202       C  0.16083693  0.71733041  0.57154718    -0.29500
C1203       C  0.25016155  0.78963847  0.67865414    -0.03700
C1204       C  0.25274550  0.81143026  0.68898095    -0.40300
H1205       H  0.23991904  0.74312976  0.66539341     0.12500
H1206       H  0.21070597  0.71312003  0.62674736     0.12100
H1207       H  0.18743487  0.76551089  0.60107197     0.11600
H1208       H  0.21673638  0.79566120  0.63970873     0.11800
H1209       H  0.18573107  0.70446508  0.57993915     0.14500
H1210       H  0.15458801  0.73014073  0.57809932     0.13300
H1211       H  0.26303858  0.78415470  0.68789057     0.11000
H1212       H  0.23976264  0.81723202  0.68137660     0.13000
C1213       C  0.55295951  0.42260114  0.83587775     0.19100
C1214       C  0.57369838  0.42258642  0.84937985    -0.19000
C1215       C  0.59052988  0.44227482  0.86931486    -0.11300
C1216       C  0.58692194  0.46249008  0.87600599     0.21300
C1217       C  0.56683394  0.46297537  0.86131447    -0.20600
C1218       C  0.55013910  0.44341348  0.84141266    -0.11500
C1219       C  0.60290891  0.48314537  0.89856697    -0.15600
C1220       C  0.61919475  0.48256309  0.91904801    -0.29500
C1221       C  0.53497304  0.40118539  0.81541192    -0.03700
C1222       C  0.51084272  0.39511961  0.81115804    -0.40300
H1223       H  0.57666012  0.40709589  0.84486870     0.12500
H1224       H  0.60615795  0.44139212  0.87926633     0.12100
H1225       H  0.56380960  0.47846463  0.86553576     0.11600
H1226       H  0.53521988  0.44489254  0.83022925     0.11800
H1227       H  0.59967963  0.49878448  0.89993004     0.14500
H1228       H  0.62242651  0.46696725  0.91910203     0.13300
H1229       H  0.54176199  0.39035210  0.80347335     0.11000
H1230       H  0.50371046  0.40532420  0.82379832     0.13000
C1231       C  0.54165829  0.42227391  0.64465419     0.19100
C1232       C  0.54170838  0.44229822  0.62927215    -0.19000
C1233       C  0.56097763  0.45757995  0.60822601    -0.11300
C1234       C  0.58079695  0.45321273  0.60205345     0.21300
C1235       C  0.58127684  0.43378893  0.61830011    -0.20600
C1236       C  0.56190300  0.41839877  0.63929682    -0.11500
C1237       C  0.60141587  0.46905947  0.57943387    -0.15600
C1238       C  0.59736545  0.47996079  0.55475105    -0.29500
C1239       C  0.52092108  0.40675003  0.66720390    -0.03700
C1240       C  0.51413662  0.38308601  0.67562500    -0.40300
H1241       H  0.52672164  0.44611519  0.63350406     0.12500
H1242       H  0.56046955  0.47306356  0.59728359     0.12100
H1243       H  0.59658664  0.43037594  0.61453659     0.11600
H1244       H  0.56317140  0.40385601  0.65164497     0.11800
H1245       H  0.62000926  0.47147635  0.58288863     0.14500
H1246       H  0.57843146  0.47649000  0.55062337     0.13300
H1247       H  0.51074944  0.41511482  0.67704733     0.11000
H1248       H  0.52343987  0.37407870  0.66518355     0.13000
C1249       C  0.33977743  0.96925377  0.85202047     0.19100
C1250       C  0.32735305  0.97168176  0.87795430    -0.19000
C1251       C  0.34026198  0.99276613  0.89787809    -0.11300
C1252       C  0.36565963  0.01173535  0.89174869     0.21300
C1253       C  0.37734673  0.00990819  0.86475450    -0.20600
C1254       C  0.36451093  0.98908536  0.84495620    -0.11500
C1255       C  0.38161472  0.03222749  0.91425186    -0.15600
C1256       C  0.37268769  0.04199416  0.93492995    -0.29500
C1257       C  0.32778381  0.94572632  0.83295380    -0.03700
C1258       C  0.34194847  0.93620874  0.82383728    -0.40300
H1259       H  0.30821272  0.95673135  0.88363588     0.12500
H1260       H  0.33082303  0.99349949  0.91875559     0.12100
H1261       H  0.39677803  0.02435521  0.85938500     0.11600
H1262       H  0.37425191  0.98814275  0.82447179     0.11800
H1263       H  0.40195769  0.03983305  0.91345876     0.14500
H1264       H  0.35274443  0.03606737  0.93479706     0.13300
H1265       H  0.30809286  0.93700598  0.82560609     0.11000
H1266       H  0.36130908  0.94497327  0.83264150     0.13000
C1267       C  0.36982845  0.00735195  0.60397204     0.19100
C1268       C  0.35592275  0.98105821  0.59908203    -0.19000
C1269       C  0.34771028  0.96438589  0.62446960    -0.11300
C1270       C  0.35388484  0.97378851  0.65519633     0.21300
C1271       C  0.36747653  0.00006839  0.66010171    -0.20600
C1272       C  0.37511516  0.01672951  0.63475950    -0.11500
C1273       C  0.34945316  0.95681987  0.68198854    -0.15600
C1274       C  0.32894378  0.93332336  0.68458303    -0.29500
C1275       C  0.38076285  0.02450140  0.57672108    -0.03700
C1276       C  0.38360126  0.04755642  0.57556725    -0.40300
H1277       H  0.35189296  0.97343173  0.57554962     0.12500
H1278       H  0.33779111  0.94421107  0.61997032     0.12100
H1279       H  0.37275758  0.00770505  0.68356624     0.11600
H1280       H  0.38628989  0.03690824  0.63923106     0.11800
H1281       H  0.36390793  0.96393432  0.70022995     0.14500
H1282       H  0.31323662  0.92661605  0.66815983     0.13300
H1283       H  0.38622638  0.01768113  0.55662885     0.11000
H1284       H  0.37612077  0.05370686  0.59419022     0.13000
C1285       C  0.45167041  0.23826551  0.65557698     0.19100
C1286       C  0.42789256  0.21761675  0.64632027    -0.19000
C1287       C  0.42623506  0.20058122  0.62359657    -0.11300
C1288       C  0.44836675  0.20367954  0.60979788     0.21300
C1289       C  0.47205983  0.22391798  0.61976328    -0.20600
C1290       C  0.47369308  0.24092242  0.64245758    -0.11500
C1291       C  0.44794920  0.18694508  0.58451477    -0.15600
C1292       C  0.42684609  0.16642822  0.57309553    -0.29500
C1293       C  0.45436389  0.25724766  0.67898054    -0.03700
C1294       C  0.43577797  0.26178684  0.68530936    -0.40300
H1295       H  0.41047765  0.21432428  0.65667313     0.12500
H1296       H  0.40753117  0.18529475  0.61701528     0.12100
H1297       H  0.48944393  0.22676373  0.60972765     0.11600
H1298       H  0.49225307  0.25648263  0.64940402     0.11800
H1299       H  0.46615407  0.19214125  0.57437056     0.14500
H1300       H  0.40829569  0.16033385  0.58257274     0.13300
H1301       H  0.47268852  0.26859734  0.69050403     0.11000
H1302       H  0.41768942  0.25143776  0.67313684     0.13000
C1303       C  0.42325867  0.23322590  0.85529926     0.19100
C1304       C  0.40841019  0.20673949  0.85223630    -0.19000
C1305       C  0.41050415  0.19096606  0.87404876    -0.11300
C1306       C  0.42742319  0.20146666  0.89952468     0.21300
C1307       C  0.44159708  0.22787837  0.90307953    -0.20600
C1308       C  0.43937486  0.24357086  0.88150489    -0.11500
C1309       C  0.43195621  0.18589776  0.92206273    -0.15600
C1310       C  0.41483778  0.16158311  0.92919573    -0.29500
C1311       C  0.42213643  0.24955630  0.83046346    -0.03700
C1312       C  0.44202185  0.27285676  0.82406112    -0.40300
H1313       H  0.39574995  0.19825242  0.83237793     0.12500
H1314       H  0.39952833  0.17070286  0.87030531     0.12100
H1315       H  0.45457351  0.23645616  0.92265074     0.11600
H1316       H  0.45041241  0.26379926  0.88545834     0.11800
H1317       H  0.44996705  0.19546219  0.93460805     0.14500
H1318       H  0.39604836  0.15209471  0.91864834     0.13300
H1319       H  0.40542446  0.24145848  0.81546607     0.11000
H1320       H  0.45951375  0.28030148  0.83737262     0.13000
C1321       C  0.01074912  0.62548366  0.89586465     0.19100
C1322       C  0.98676892  0.62247885  0.89993499    -0.19000
C1323       C  0.96757989  0.60963062  0.87739486    -0.11300
C1324       C  0.97226853  0.59987891  0.85018685     0.21300
C1325       C  0.99668432  0.60415938  0.84552280    -0.20600
C1326       C  0.01574240  0.61694523  0.86791915    -0.11500
C1327       C  0.95218222  0.58389527  0.82692562    -0.15600
C1328       C  0.93036527  0.58356919  0.82297932    -0.29500
C1329       C  0.02977908  0.63582686  0.92169434    -0.03700
C1330       C  0.04392051  0.62560777  0.92795473    -0.40300
H1331       H  0.98251416  0.62898251  0.92123264     0.12500
H1332       H  0.94894834  0.60650419  0.88203707     0.12100
H1333       H  0.00093140  0.59714906  0.82466445     0.11600
H1334       H  0.03428181  0.61965962  0.86362984     0.11800
H1335       H  0.95604908  0.57240021  0.81142383     0.14500
H1336       H  0.92665646  0.59607104  0.83658188     0.13300
H1337       H  0.03046432  0.65001440  0.93730224     0.11000
H1338       H  0.04117596  0.60972060  0.91394182     0.13000
C1339       C  0.96392806  0.57787509  0.64459397     0.19100
C1340       C  0.97849178  0.60395624  0.63795715    -0.19000
C1341       C  0.99774071  0.61318121  0.61530138    -0.11300
C1342       C  0.00274391  0.59645373  0.59896193     0.21300
C1343       C  0.98781104  0.57049159  0.60539639    -0.20600
C1344       C  0.96882751  0.56137812  0.62793584    -0.11500
C1345       C  0.02300298  0.60459138  0.57498099    -0.15600
C1346       C  0.04141095  0.62867006  0.56895707    -0.29500
C1347       C  0.94441309  0.56673074  0.66960885    -0.03700
C1348       C  0.93321315  0.57793402  0.68365859    -0.40300
H1349       H  0.97550609  0.61731332  0.65056607     0.12500
H1350       H  0.00851863  0.63330570  0.61084085     0.12100
H1351       H  0.99104800  0.55710408  0.59318411     0.11600
H1352       H  0.95798158  0.54121192  0.63252419     0.11800
H1353       H  0.02294815  0.58957217  0.56174762     0.14500
H1354       H  0.04228882  0.64431329  0.58151261     0.13300
H1355       H  0.93862922  0.54757433  0.67656890     0.11000
H1356       H  0.93774591  0.59668866  0.67672520     0.13000
C1357       C  0.77711468  0.53809823  0.65131328     0.19100
C1358       C  0.75600481  0.54008024  0.65831151    -0.19000
C1359       C  0.74277967  0.54404429  0.63449275    -0.11300
C1360       C  0.75007672  0.54542258  0.60312192     0.21300
C1361       C  0.77117485  0.54340997  0.59615473    -0.20600
C1362       C  0.78475953  0.54008385  0.62000874    -0.11500
C1363       C  0.73449535  0.54600481  0.57696725    -0.15600
C1364       C  0.72127415  0.55777018  0.57801684    -0.29500
C1365       C  0.79006941  0.53269972  0.67677839    -0.03700
C1366       C  0.81540730  0.54316386  0.67771030    -0.40300
H1367       H  0.74966190  0.53840222  0.68224255     0.12500
H1368       H  0.72622720  0.54491147  0.64050429     0.12100
H1369       H  0.77692012  0.54403438  0.57211439     0.11600
H1370       H  0.80065434  0.53813010  0.61383373     0.11800
H1371       H  0.73423397  0.53651136  0.55545153     0.14500
H1372       H  0.72298875  0.56939045  0.59799023     0.13300
H1373       H  0.77866753  0.52108623  0.69623027     0.11000
H1374       H  0.82717246  0.55683387  0.66000885     0.13000
C1375       C  0.79105642  0.55655203  0.85291758     0.19100
C1376       C  0.79872605  0.57306398  0.87868163    -0.19000
C1377       C  0.78096828  0.57043007  0.90119168    -0.11300
C1378       C  0.75512926  0.55135815  0.89801700     0.21300
C1379       C  0.74748726  0.53550160  0.87169242    -0.20600
C1380       C  0.76510053  0.53818547  0.84930222    -0.11500
C1381       C  0.73555858  0.54646698  0.92187646    -0.15600
C1382       C  0.73712858  0.56390135  0.94212043    -0.29500
C1383       C  0.81013358  0.55803530  0.83031484    -0.03700
C1384       C  0.80723929  0.53681014  0.81756437    -0.40300
H1385       H  0.81857645  0.58744891  0.88192370     0.12500
H1386       H  0.78766154  0.58280237  0.92138546     0.12100
H1387       H  0.72772292  0.52084625  0.86844678     0.11600
H1388       H  0.75832822  0.52571202  0.82917373     0.11800
H1389       H  0.71835500  0.52781029  0.92162501     0.14500
H1390       H  0.75342755  0.58309709  0.94164835     0.13300
H1391       H  0.82684911  0.57631448  0.82503510     0.11000
H1392       H  0.79130966  0.51863624  0.82496195     0.13000
C1393       C  0.54686406  0.10281616  0.84045632     0.19100
C1394       C  0.52456434  0.08010953  0.84848951    -0.19000
C1395       C  0.50773315  0.07985779  0.87045649    -0.11300
C1396       C  0.51257549  0.10233793  0.88481170     0.21300
C1397       C  0.53477729  0.12518976  0.87666916    -0.20600
C1398       C  0.55168305  0.12545218  0.85470032    -0.11500
C1399       C  0.49493323  0.10080300  0.90957292    -0.15600
C1400       C  0.49340985  0.12062311  0.91959097    -0.29500
C1401       C  0.56428558  0.10164864  0.81734148    -0.03700
C1402       C  0.58728881  0.12133886  0.80921443    -0.40300
H1403       H  0.52023995  0.06236620  0.83797211     0.12500
H1404       H  0.49089554  0.06194476  0.87641089     0.12100
H1405       H  0.53960166  0.14285556  0.88773996     0.11600
H1406       H  0.56844222  0.14347084  0.84931691     0.11800
H1407       H  0.48268376  0.08236908  0.92016672     0.14500
H1408       H  0.50453879  0.13897037  0.90848593     0.13300
H1409       H  0.55784649  0.08331462  0.80668966     0.11000
H1410       H  0.59463497  0.13991147  0.81940635     0.13000
C1411       C  0.56960907  0.12483088  0.63463316     0.19100
C1412       C  0.56125588  0.14198835  0.63305383    -0.19000
C1413       C  0.54184579  0.13795335  0.61229484    -0.11300
C1414       C  0.53051220  0.11670315  0.59230698     0.21300
C1415       C  0.53932694  0.09992762  0.59330260    -0.20600
C1416       C  0.55880432  0.10403549  0.61388880    -0.11500
C1417       C  0.50903913  0.11092368  0.57084122    -0.15600
C1418       C  0.50452447  0.12860708  0.55993438    -0.29500
C1419       C  0.58877118  0.12864287  0.65894063    -0.03700
C1420       C  0.59057447  0.10935890  0.67026839    -0.40300
H1421       H  0.56922936  0.15817775  0.64864294     0.12500
H1422       H  0.53531546  0.15110216  0.61275610     0.12100
H1423       H  0.53111951  0.08354306  0.57801068     0.11600
H1424       H  0.56524417  0.09081904  0.61334321     0.11800
H1425       H  0.49716856  0.09152415  0.56264871     0.14500
H1426       H  0.51714369  0.14833798  0.56623412     0.13300
H1427       H  0.60006875  0.14723381  0.66965349     0.11000
H1428       H  0.57823990  0.09041501  0.66107409     0.13000
C1429       C  0.76997601  0.23800754  0.89850944     0.19100
C1430       C  0.74428928  0.21985682  0.90375662    -0.19000
C1431       C  0.72841005  0.20544630  0.87894138    -0.11300
C1432       C  0.73776461  0.20948600  0.84824425     0.21300
C1433       C  0.76328881  0.22805229  0.84284700    -0.20600
C1434       C  0.77937827  0.24194702  0.86781159    -0.11500
C1435       C  0.72106499  0.19469257  0.82159748    -0.15600
C1436       C  0.70571177  0.16940953  0.82307895    -0.29500
C1437       C  0.78619900  0.25345830  0.92516114    -0.03700
C1438       C  0.81062112  0.26009021  0.92836983    -0.40300
H1439       H  0.73657314  0.21669382  0.92714569     0.12500
H1440       H  0.70868234  0.19147122  0.88363141     0.12100
H1441       H  0.77083248  0.23156078  0.81934742     0.11600
H1442       H  0.79899047  0.25619628  0.86300998     0.11800
H1443       H  0.72296818  0.20437303  0.79965416     0.14500
H1444       H  0.70598919  0.15951217  0.84392609     0.13300
H1445       H  0.77738541  0.25834548  0.94353639     0.11000
H1446       H  0.81887363  0.25325753  0.91162063     0.13000
C1447       C  0.77280319  0.23924559  0.60288043     0.19100
C1448       C  0.75210577  0.24142162  0.61136407    -0.19000
C1449       C  0.73379690  0.22426933  0.63210316    -0.11300
C1450       C  0.73569310  0.20450607  0.64511638     0.21300
C1451       C  0.75653204  0.20231324  0.63678291    -0.20600
C1452       C  0.77492072  0.21954700  0.61601065    -0.11500
C1453       C  0.71557227  0.18709262  0.66733947    -0.15600
C1454       C  0.71562931  0.16846055  0.68353960    -0.29500
C1455       C  0.79160131  0.25808315  0.58054462    -0.03700
C1456       C  0.80901810  0.25529779  0.56528334    -0.40300
H1457       H  0.74998814  0.25641208  0.60177610     0.12500
H1458       H  0.71805346  0.22654385  0.63807535     0.12100
H1459       H  0.75895233  0.18749138  0.64607008     0.11600
H1460       H  0.79080500  0.21740062  0.61079007     0.11800
H1461       H  0.70008897  0.19032814  0.67122058     0.14500
H1462       H  0.73088984  0.16481666  0.68100602     0.13300
H1463       H  0.79030541  0.27456898  0.57546759     0.11000
H1464       H  0.81025007  0.23865568  0.56883204     0.13000
C1465       C  0.86186411  0.43889123  0.85882518     0.19100
C1466       C  0.88297129  0.43694365  0.86604379    -0.19000
C1467       C  0.88082020  0.41822257  0.88625994    -0.11300
C1468       C  0.85745694  0.40112049  0.90048060     0.21300
C1469       C  0.83621999  0.40287857  0.89306222    -0.20600
C1470       C  0.83834729  0.42158593  0.87256811    -0.11500
C1471       C  0.85456984  0.38133915  0.92300854    -0.15600
C1472       C  0.87439354  0.38246177  0.93798715    -0.29500
C1473       C  0.86562304  0.45925973  0.83686554    -0.03700
C1474       C  0.84683021  0.45999376  0.82165315    -0.40300
H1475       H  0.90127104  0.44982882  0.85564255     0.12500
H1476       H  0.89755614  0.41718783  0.89013903     0.12100
H1477       H  0.81795987  0.38993253  0.90350358     0.11600
H1478       H  0.82163691  0.42255714  0.86805532     0.11800
H1479       H  0.83546044  0.36594020  0.92838672     0.14500
H1480       H  0.89349941  0.39828414  0.93409766     0.13300
H1481       H  0.88515252  0.47372524  0.83161985     0.11000
H1482       H  0.82714578  0.44538843  0.82535802     0.13000
C1483       C  0.86082928  0.39947445  0.60937188     0.19100
C1484       C  0.84026487  0.40276292  0.61435229    -0.19000
C1485       C  0.84178190  0.42012163  0.63653717    -0.11300
C1486       C  0.86410099  0.43476677  0.65435488     0.21300
C1487       C  0.88447366  0.43112663  0.64976378    -0.20600
C1488       C  0.88290869  0.41369530  0.62773194    -0.11500
C1489       C  0.86703445  0.45361316  0.67836186    -0.15600
C1490       C  0.85014167  0.46079704  0.68326513    -0.29500
C1491       C  0.85835443  0.38117660  0.58481661    -0.03700
C1492       C  0.87798073  0.37964099  0.57408126    -0.40300
H1493       H  0.82291753  0.39192849  0.60085832     0.12500
H1494       H  0.82530376  0.42168557  0.63951322     0.12100
H1495       H  0.90178258  0.44183889  0.66336077     0.11600
H1496       H  0.89906615  0.41149082  0.62564311     0.11800
H1497       H  0.88411320  0.46206547  0.69274207     0.14500
H1498       H  0.83300477  0.45308035  0.66928478     0.13300
H1499       H  0.83975010  0.36920184  0.57418383     0.11000
H1500       H  0.89694092  0.39185073  0.58337445     0.13000
C1501       C  0.61653664  0.98564796  0.90715132     0.19100
C1502       C  0.61951419  0.00949107  0.91171801    -0.19000
C1503       C  0.63099707  0.02823454  0.88900555    -0.11300
C1504       C  0.63963197  0.02347595  0.86103831     0.21300
C1505       C  0.63833877  0.00034029  0.85723381    -0.20600
C1506       C  0.62668227  0.98141803  0.87999893    -0.11500
C1507       C  0.64744390  0.04139674  0.83455837    -0.15600
C1508       C  0.63365893  0.05178672  0.82729156    -0.29500
C1509       C  0.60104461  0.96553829  0.93021765    -0.03700
C1510       C  0.59962160  0.94314808  0.93242851    -0.40300
H1511       H  0.61215641  0.01338546  0.93252930     0.12500
H1512       H  0.63231618  0.04617959  0.89281317     0.12100
H1513       H  0.64494981  0.99635739  0.83583215     0.11600
H1514       H  0.62465734  0.96328528  0.87543153     0.11800
H1515       H  0.66249759  0.04383617  0.81913820     0.14500
H1516       H  0.61708907  0.04709494  0.84124618     0.13300
H1517       H  0.59018782  0.96959219  0.94660577     0.11000
H1518       H  0.61119987  0.93883887  0.91781476     0.13000
C1519       C  0.62163352  0.00886279  0.65430155     0.19100
C1520       C  0.61216587  0.98289375  0.65761737    -0.19000
C1521       C  0.60534675  0.96726267  0.63123728    -0.11300
C1522       C  0.60726406  0.97735980  0.60123296     0.21300
C1523       C  0.61721109  0.00338875  0.59790814    -0.20600
C1524       C  0.62466012  0.01910081  0.62416728    -0.11500
C1525       C  0.59559141  0.96075939  0.57375720    -0.15600
C1526       C  0.59606016  0.93959556  0.56881980    -0.29500
C1527       C  0.62531937  0.02443283  0.68231928    -0.03700
C1528       C  0.64396620  0.04884723  0.68435106    -0.40300
H1529       H  0.60939745  0.97461495  0.68067053     0.12500
H1530       H  0.59713948  0.94711458  0.63442947     0.12100
H1531       H  0.61844572  0.01142613  0.57499578     0.11600
H1532       H  0.63133914  0.03896323  0.62097306     0.11800
H1533       H  0.58584576  0.96607348  0.55704699     0.14500
H1534       H  0.60747173  0.93503709  0.58362516     0.13300
H1535       H  0.61196815  0.01571739  0.70145409     0.11000
H1536       H  0.65859058  0.05708368  0.66653646     0.13000
C1537       C  0.42570230  0.88211280  0.84427733     0.19100
C1538       C  0.42496524  0.85981889  0.85305905    -0.19000
C1539       C  0.44222796  0.86066901  0.87515516    -0.11300
C1540       C  0.46056472  0.88383555  0.88890530     0.21300
C1541       C  0.46172317  0.90607568  0.87931377    -0.20600
C1542       C  0.44452720  0.90522927  0.85731145    -0.11500
C1543       C  0.47900781  0.88592965  0.91302724    -0.15600
C1544       C  0.47595211  0.86650659  0.93067892    -0.29500
C1545       C  0.40777090  0.88247966  0.82125599    -0.03700
C1546       C  0.38534596  0.86205068  0.81275025    -0.40300
H1547       H  0.41140892  0.84173182  0.84271225     0.12500
H1548       H  0.44128654  0.84321837  0.88097378     0.12100
H1549       H  0.47581519  0.92421933  0.88920976     0.11600
H1550       H  0.44577468  0.92273148  0.85071320     0.11800
H1551       H  0.49529492  0.90475703  0.91755059     0.14500
H1552       H  0.45946640  0.84764946  0.92753710     0.13300
H1553       H  0.41302027  0.90080841  0.81159084     0.11000
H1554       H  0.37914644  0.84357707  0.82254403     0.13000
C1555       C  0.45095634  0.88388428  0.59855404     0.19100
C1556       C  0.43023445  0.86052030  0.60851403    -0.19000
C1557       C  0.41254954  0.85968154  0.62964900    -0.11300
C1558       C  0.41507705  0.88221316  0.64110364     0.21300
C1559       C  0.43560639  0.90545705  0.63077304    -0.20600
C1560       C  0.45320563  0.90627743  0.60962949    -0.11500
C1561       C  0.39774089  0.88270469  0.66482136    -0.15600
C1562       C  0.37581443  0.86235829  0.67469388    -0.29500
C1563       C  0.47004039  0.88574726  0.57583681    -0.03700
C1564       C  0.47485936  0.86716519  0.57096092    -0.40300
H1565       H  0.42735119  0.84281121  0.59981081     0.12500
H1566       H  0.39724801  0.84132700  0.63706542     0.12100
H1567       H  0.43813230  0.92312879  0.63920452     0.11600
H1568       H  0.46882237  0.92452917  0.60214314     0.11800
H1569       H  0.40386082  0.90099942  0.67536572     0.14500
H1570       H  0.36883146  0.84377585  0.66471180     0.13300
H1571       H  0.48079803  0.90334180  0.56289795     0.11000
H1572       H  0.46505914  0.84982311  0.58444948     0.13000
C1573       C  0.12453953  0.53107348  0.85560471     0.19100
C1574       C  0.14137473  0.55739643  0.85587365    -0.19000
C1575       C  0.13891818  0.57261969  0.87809484    -0.11300
C1576       C  0.11971874  0.56167557  0.90092453     0.21300
C1577       C  0.10344554  0.53523710  0.90114123    -0.20600
C1578       C  0.10584419  0.52009982  0.87889951    -0.11500
C1579       C  0.11537302  0.57673136  0.92456126    -0.15600
C1580       C  0.13116972  0.60167381  0.93015456    -0.29500
C1581       C  0.12667160  0.51551477  0.83068723    -0.03700
C1582       C  0.10622582  0.49428612  0.81952251    -0.40300
H1583       H  0.15604672  0.56628076  0.83830112     0.12500
H1584       H  0.15181102  0.59285118  0.87672143     0.12100
H1585       H  0.08867170  0.52619523  0.91857096     0.11600
H1586       H  0.09307237  0.49978992  0.88012134     0.11800
H1587       H  0.09830907  0.56646398  0.93861306     0.14500
H1588       H  0.14878107  0.61249602  0.91741313     0.13300
H1589       H  0.14510400  0.52246312  0.82003929     0.11000
H1590       H  0.08752925  0.48832112  0.82862544     0.13000
C1591       C  0.12295715  0.53256589  0.64743905     0.19100
C1592       C  0.14233417  0.54775924  0.62627408    -0.19000
C1593       C  0.13990325  0.56426369  0.60614042    -0.11300
C1594       C  0.11812280  0.56612725  0.60721978     0.21300
C1595       C  0.09905664  0.55129835  0.62886366    -0.20600
C1596       C  0.10147602  0.53486546  0.64887676    -0.11500
C1597       C  0.11358813  0.58186885  0.58502963    -0.15600
C1598       C  0.13192047  0.60163742  0.56890665    -0.29500
C1599       C  0.12578435  0.51510815  0.66860285    -0.03700
C1600       C  0.10554395  0.49348112  0.67899132    -0.40300
H1601       H  0.15914113  0.54647061  0.62489063     0.12500
H1602       H  0.15477862  0.57494299  0.58932659     0.12100
H1603       H  0.08214419  0.55240842  0.63028781     0.11600
H1604       H  0.08657675  0.52421199  0.66570376     0.11800
H1605       H  0.09399471  0.57677857  0.58182525     0.14500
H1606       H  0.15174266  0.60788732  0.57263373     0.13300
H1607       H  0.14477156  0.52029658  0.67599449     0.11000
H1608       H  0.08671452  0.48776213  0.67034724     0.13000
C1609       C  0.00452300  0.35959558  0.85130849     0.19100
C1610       C  0.97812056  0.34673793  0.84686426    -0.19000
C1611       C  0.96182208  0.33906479  0.87250873    -0.11300
C1612       C  0.97176388  0.34468169  0.90304532     0.21300
C1613       C  0.99811813  0.35700787  0.90753397    -0.20600
C1614       C  0.01439798  0.36416510  0.88189096    -0.11500
C1615       C  0.95538156  0.34088327  0.93012415    -0.15600
C1616       C  0.93145689  0.32115452  0.93262103    -0.29500
C1617       C  0.02123087  0.37115976  0.82394916    -0.03700
C1618       C  0.04489480  0.37540572  0.82202576    -0.40300
H1619       H  0.97015741  0.34339317  0.82348722     0.12500
H1620       H  0.94159361  0.33012827  0.86837017     0.12100
H1621       H  0.00613577  0.36179496  0.93089284     0.11600
H1622       H  0.03470525  0.37462720  0.88602570     0.11800
H1623       H  0.96330231  0.35500794  0.94865397     0.14500
H1624       H  0.92393486  0.30567639  0.91587801     0.13300
H1625       H  0.01383143  0.37697722  0.80471965     0.11000
H1626       H  0.05201717  0.36794046  0.83957141     0.13000
C1627       C  0.97086171  0.33600217  0.59848739     0.19100
C1628       C  0.99713029  0.34689559  0.59465186    -0.19000
C1629       C  0.01347080  0.35516926  0.62058248    -0.11300
C1630       C  0.00383075  0.35315739  0.65086389     0.21300
C1631       C  0.97744389  0.34131447  0.65478077    -0.20600
C1632       C  0.96105824  0.33258217  0.62889194    -0.11500
C1633       C  0.02079142  0.36650072  0.67794822    -0.15600
C1634       C  0.04474180  0.37151536  0.68088237    -0.29500
C1635       C  0.95490434  0.33230557  0.57057285    -0.03700
C1636       C  0.92995537  0.31473775  0.56843256    -0.40300
H1637       H  0.00513218  0.35000564  0.57142328     0.12500
H1638       H  0.03373005  0.36468073  0.61664058     0.12100
H1639       H  0.96959022  0.33980421  0.67783850     0.11600
H1640       H  0.94096788  0.32479247  0.63260048     0.11800
H1641       H  0.01332776  0.37313171  0.69606814     0.14500
H1642       H  0.05206376  0.36338890  0.66467844     0.13300
H1643       H  0.96402749  0.34533593  0.55122935     0.11000
H1644       H  0.92078248  0.30018684  0.58616750     0.13000
C1645       C  0.37890570  0.36865118  0.83932597     0.19100
C1646       C  0.36542135  0.38085350  0.83395686    -0.19000
C1647       C  0.35738797  0.38939286  0.85909340    -0.11300
C1648       C  0.36341841  0.38645709  0.88988704     0.21300
C1649       C  0.37682554  0.37422560  0.89523855    -0.20600
C1650       C  0.38424688  0.36510737  0.87023146    -0.11500
C1651       C  0.35870635  0.39856417  0.91651809    -0.15600
C1652       C  0.33703468  0.39840991  0.92044059    -0.29500
C1653       C  0.38947874  0.36208595  0.81252644    -0.03700
C1654       C  0.39223007  0.34193089  0.81269926    -0.40300
H1655       H  0.36148578  0.38412825  0.81029581     0.12500
H1656       H  0.34759355  0.39935102  0.85442982     0.12100
H1657       H  0.38199421  0.37218181  0.91881446     0.11600
H1658       H  0.39524180  0.35641770  0.87506684     0.11800
H1659       H  0.37349419  0.40725679  0.93430865     0.14500
H1660       H  0.32106801  0.38778283  0.90461534     0.13300
H1661       H  0.39542975  0.37439898  0.79220788     0.11000
H1662       H  0.38453895  0.32843150  0.83179566     0.13000
C1663       C  0.37894681  0.36046916  0.64072683     0.19100
C1664       C  0.36997430  0.37687239  0.64520739    -0.19000
C1665       C  0.36037045  0.38375235  0.62007701    -0.11300
C1666       C  0.36027548  0.37489638  0.58981746     0.21300
C1667       C  0.36891370  0.35817820  0.58533925    -0.20600
C1668       C  0.37783067  0.35065874  0.61074457    -0.11500
C1669       C  0.35435198  0.38559632  0.56253055    -0.15600
C1670       C  0.33543804  0.39029740  0.56286573    -0.29500
C1671       C  0.39256601  0.35688413  0.66668920    -0.03700
C1672       C  0.39087440  0.33481863  0.67319234    -0.40300
H1673       H  0.37108377  0.38493930  0.66806368     0.12500
H1674       H  0.35442543  0.39718131  0.62401457     0.12100
H1675       H  0.36934296  0.35147790  0.56209451     0.11600
H1676       H  0.38522552  0.33843355  0.60665628     0.11800
H1677       H  0.36650689  0.39066296  0.54214357     0.14500
H1678       H  0.32193699  0.38340969  0.58199445     0.13300
H1679       H  0.40421056  0.37321517  0.68159533     0.11000
H1680       H  0.37758772  0.31766038  0.66057725     0.13000
C1681       C  0.20768847  0.45868043  0.85443182     0.19100
C1682       C  0.21015274  0.43760454  0.85935021    -0.19000
C1683       C  0.22811593  0.43883850  0.88049220    -0.11300
C1684       C  0.24415807  0.46121553  0.89751504     0.21300
C1685       C  0.24208945  0.48244384  0.89192425    -0.20600
C1686       C  0.22416850  0.48122681  0.87058513    -0.11500
C1687       C  0.26310649  0.46326963  0.92122047    -0.15600
C1688       C  0.26459323  0.44342148  0.93119238    -0.29500
C1689       C  0.18918916  0.45819496  0.83143236    -0.03700
C1690       C  0.16820455  0.43671271  0.82157185    -0.40300
H1691       H  0.19869432  0.42020403  0.84639809     0.12500
H1692       H  0.22929104  0.42213800  0.88281901     0.12100
H1693       H  0.25429641  0.50004966  0.90427329     0.11600
H1694       H  0.22305068  0.49791989  0.86685992     0.11800
H1695       H  0.27588479  0.48176686  0.93151611     0.14500
H1696       H  0.25193662  0.42467194  0.92180071     0.13300
H1697       H  0.19308734  0.47623629  0.82223366     0.11000
H1698       H  0.16340153  0.41861734  0.83144940     0.13000
C1699       C  0.20628005  0.45294528  0.64889409     0.19100
C1700       C  0.20745238  0.43115168  0.64316902    -0.19000
C1701       C  0.22533541  0.43194720  0.62235320    -0.11300
C1702       C  0.24250891  0.45456486  0.60682496     0.21300
C1703       C  0.24146969  0.47629649  0.61292033    -0.20600
C1704       C  0.22364439  0.47549953  0.63366621    -0.11500
C1705       C  0.26202734  0.45677045  0.58445381    -0.15600
C1706       C  0.26268030  0.43712664  0.57183106    -0.29500
C1707       C  0.18823414  0.45344997  0.67152750    -0.03700
C1708       C  0.16733830  0.43264889  0.68249643    -0.40300
H1709       H  0.19508937  0.41356021  0.65514931     0.12500
H1710       H  0.22580947  0.41489768  0.61907259     0.12100
H1711       H  0.25450800  0.49404028  0.60151221     0.11600
H1712       H  0.22342889  0.49265343  0.63781820     0.11800
H1713       H  0.27608142  0.47580172  0.57688128     0.14500
H1714       H  0.24846746  0.41778685  0.57778003     0.13300
H1715       H  0.19240836  0.47192325  0.67950077     0.11000
H1716       H  0.16228502  0.41399006  0.67436414     0.13000
C1717       C  0.62654864  0.64022986  0.84116837     0.19100
C1718       C  0.63802862  0.62594509  0.83690253    -0.19000
C1719       C  0.64669879  0.61846963  0.86262185    -0.11300
C1720       C  0.64340173  0.62463365  0.89314999     0.21300
C1721       C  0.63285259  0.63974436  0.89733654    -0.20600
C1722       C  0.62476042  0.64773638  0.87160845    -0.11500
C1723       C  0.64667319  0.61211176  0.92075936    -0.15600
C1724       C  0.66494824  0.60655739  0.92350947    -0.29500
C1725       C  0.61343472  0.64391319  0.81433552    -0.03700
C1726       C  0.61042715  0.66386625  0.81167785    -0.40300
H1727       H  0.63937570  0.61972175  0.81370841     0.12500
H1728       H  0.65428612  0.60639256  0.85873547     0.12100
H1729       H  0.62985691  0.64444950  0.92068285     0.11600
H1730       H  0.61552616  0.65827328  0.87579652     0.11800
H1731       H  0.63290310  0.60663623  0.93947131     0.14500
H1732       H  0.68026020  0.61367319  0.90663490     0.13300
H1733       H  0.60535821  0.62922699  0.79649178     0.11000
H1734       H  0.62001687  0.67963180  0.82791783     0.13000
C1735       C  0.63966145  0.62220715  0.60035648     0.19100
C1736       C  0.64292842  0.64640014  0.60061381    -0.19000
C1737       C  0.62979661  0.65236046  0.62229620    -0.11300
C1738       C  0.61348960  0.63418417  0.64427997     0.21300
C1739       C  0.61151614  0.61057982  0.64490927    -0.20600
C1740       C  0.62450952  0.60469505  0.62339759    -0.11500
C1741       C  0.59748422  0.63816246  0.66655662    -0.15600
C1742       C  0.59980466  0.66052103  0.67326222    -0.29500
C1743       C  0.65067674  0.61456527  0.57505238    -0.03700
C1744       C  0.63680330  0.59140276  0.56218854    -0.40300
H1745       H  0.65471587  0.66025432  0.58318683     0.12500
H1746       H  0.63189119  0.67078531  0.62101138     0.12100
H1747       H  0.59947635  0.59636005  0.66186122     0.11600
H1748       H  0.62228422  0.58616487  0.62440816     0.11800
H1749       H  0.58351124  0.62153846  0.67941213     0.14500
H1750       H  0.61434883  0.67786669  0.66232854     0.13300
H1751       H  0.66936321  0.62817160  0.56598074     0.11000
H1752       H  0.61734058  0.57893116  0.56986226     0.13000
C1753       C  0.40866591  0.54148317  0.61483661     0.19100
C1754       C  0.41719904  0.56729232  0.61801915    -0.19000
C1755       C  0.43697573  0.58267668  0.63882315    -0.11300
C1756       C  0.44845871  0.57243103  0.65720293     0.21300
C1757       C  0.43948076  0.54652099  0.65454572    -0.20600
C1758       C  0.41965326  0.53115166  0.63395937    -0.11500
C1759       C  0.47012115  0.58806383  0.67885904    -0.15600
C1760       C  0.47453655  0.60976874  0.69194369    -0.29500
C1761       C  0.38907029  0.52609677  0.59064415    -0.03700
C1762       C  0.38781170  0.50589541  0.57698997    -0.40300
H1763       H  0.40907136  0.57574490  0.60367356     0.12500
H1764       H  0.44363629  0.60265584  0.63970259     0.12100
H1765       H  0.44778628  0.53808145  0.66859018     0.11600
H1766       H  0.41304075  0.51118269  0.63319811     0.11800
H1767       H  0.48208358  0.58072720  0.68550385     0.14500
H1768       H  0.46188413  0.61659623  0.68700540     0.13300
H1769       H  0.37697873  0.53274479  0.58201837     0.11000
H1770       H  0.40111516  0.50031050  0.58395675     0.13000
C1771       C  0.42583471  0.54632103  0.90754790     0.19100
C1772       C  0.45201315  0.55576273  0.90733461    -0.19000
C1773       C  0.46799535  0.57528529  0.88705045    -0.11300
C1774       C  0.45797873  0.58558183  0.86637323     0.21300
C1775       C  0.43194019  0.57657296  0.86701198    -0.20600
C1776       C  0.41592669  0.55693169  0.88708841    -0.11500
C1777       C  0.47396465  0.60508156  0.84312235    -0.15600
C1778       C  0.49373764  0.60559996  0.82935863    -0.29500
C1779       C  0.40948937  0.52512024  0.92889574    -0.03700
C1780       C  0.38644296  0.51984038  0.93803370    -0.40300
H1781       H  0.46012830  0.54800929  0.92292893     0.12500
H1782       H  0.48813765  0.58229329  0.88764096     0.12100
H1783       H  0.42383339  0.58418214  0.85117237     0.11600
H1784       H  0.39580376  0.54979315  0.88574882     0.11800
H1785       H  0.46782000  0.61766500  0.83491623     0.14500
H1786       H  0.49881950  0.59183186  0.83577922     0.13300
H1787       H  0.41712469  0.51414100  0.93839089     0.11000
H1788       H  0.37906369  0.53146863  0.93032653     0.13000
C1789       C  0.55097536  0.75460378  0.64491893     0.19100
C1790       C  0.57117268  0.77509557  0.62931059    -0.19000
C1791       C  0.56671012  0.78974666  0.60838118    -0.11300
C1792       C  0.54179929  0.78421477  0.60264537     0.21300
C1793       C  0.52156415  0.76326823  0.61752156    -0.20600
C1794       C  0.52600833  0.74857142  0.63831294    -0.11500
C1795       C  0.53600986  0.79896008  0.58024064    -0.15600
C1796       C  0.55325629  0.82265979  0.57129567    -0.29500
C1797       C  0.55657144  0.73971715  0.66740206    -0.03700
C1798       C  0.54027370  0.72546781  0.68997710    -0.40300
H1799       H  0.59051472  0.77985847  0.63340863     0.12500
H1800       H  0.58283115  0.80501603  0.59643298     0.12100
H1801       H  0.50217873  0.75820430  0.61300040     0.11600
H1802       H  0.50970317  0.73229088  0.64859642     0.11800
H1803       H  0.51685943  0.78992083  0.57072450     0.14500
H1804       H  0.57227506  0.83228612  0.58112764     0.13300
H1805       H  0.57484819  0.74114516  0.66595735     0.11000
H1806       H  0.52248761  0.72482734  0.69259158     0.13000
C1807       C  0.55152104  0.75330839  0.86594497     0.19100
C1808       C  0.53065797  0.75153493  0.88138748    -0.19000
C1809       C  0.53371900  0.77082568  0.90125157    -0.11300
C1810       C  0.55783387  0.79267460  0.90604492     0.21300
C1811       C  0.57889758  0.79415602  0.89155631    -0.20600
C1812       C  0.57585433  0.77477531  0.87162782    -0.11500
C1813       C  0.56147105  0.81349805  0.92709252    -0.15600
C1814       C  0.54277719  0.81811368  0.93216824    -0.29500
C1815       C  0.54659554  0.73252854  0.84387228    -0.03700
C1816       C  0.56412427  0.73300409  0.82481585    -0.40300
H1817       H  0.51176884  0.73514617  0.87795749     0.12500
H1818       H  0.51711850  0.76828077  0.91313816     0.12100
H1819       H  0.59774243  0.81050606  0.89538523     0.11600
H1820       H  0.59267404  0.77693604  0.86094063     0.11800
H1821       H  0.57956461  0.82476443  0.93913621     0.14500
H1822       H  0.52499083  0.80738689  0.91940077     0.13300
H1823       H  0.52717699  0.71656283  0.84211962     0.11000
H1824       H  0.58357470  0.74876950  0.82533100     0.13000
loop_ 
_geom_bond_atom_site_label_1 
_geom_bond_atom_site_label_2 
_geom_bond_distance 
_geom_bond_site_symmetry_2 
_ccdc_geom_bond_type 
Fe1          O17   2.084       .  S
Fe1           O7   2.051       .  S
Fe1          O14   2.052       .  S
Fe1           O6   2.079       .  S
Fe1          O12   1.967       .  S
Fe2           O5   2.065       .  S
Fe2           O9   2.060       .  S
Fe2          O13   2.070       .  S
Fe2          O18   2.060       .  S
Fe2          O12   1.967       .  S
Fe3          O21   2.080       .  S
Fe3           O8   2.067       .  S
Fe3          O15   2.075       .  S
Fe3           O4   2.074       .  S
Fe3          O12   1.970       .  S
O4           C11   1.273       .  A
O5           C19   1.270       .  A
O6           C11   1.274       .  A
O7           C10   1.266       .  A
O8           C20   1.266       .  A
O9           C22   1.268       .  A
C10          O15   1.267       .  A
C10         C830   1.479       .  S
C11         C814   1.480       .  S
O13          C16   1.269       .  A
O14          C16   1.265       .  A
C16         C866   1.472       .  S
O17          C22   1.273       .  A
O18          C20   1.268       .  A
C19          O21   1.275       .  A
C19         C886   1.476       .  S
C20         C904   1.474       .  S
C22         C848   1.480       .  S
Fe23         O39   2.046   1_556  S
Fe23         O29   2.069   1_556  S
Fe23        O948   2.072       .  S
Fe23        O940   2.041       .  S
Fe23        O946   1.975       .  S
Fe24         O35   2.049       .  S
Fe24         O40   2.084       .  S
Fe24        O939   2.053       .  S
Fe24        O943   2.091       .  S
Fe24         O34   1.982       .  S
Fe25         O30   2.055       .  S
Fe25         O26   2.092       .  S
Fe25        O955   2.081       .  S
Fe25        O949   2.063       .  S
Fe25         O34   1.978       .  S
O26          C33   1.272       .  A
O27        Fe936   2.046       .  S
O27          C41   1.267       .  A
O28        Fe935   2.049       .  S
O28          C33   1.267       .  A
O29          C32   1.269       .  A
O30          C42   1.269       .  A
O31        Fe936   2.097       .  S
O31          C44   1.275       .  A
C32          O37   1.267       .  A
C32         C758   1.474       .  S
C33         C740   1.483       .  S
O34        Fe935   1.978       .  S
O35          C38   1.263       .  A
O36        Fe935   2.073       .  S
O36          C38   1.270       .  A
O37        Fe937   2.064   1_554  S
C38         C868   1.473       .  S
O39          C44   1.266       .  A
O40          C42   1.274       .  A
C41          O43   1.269       .  A
C41         C794   1.478       .  S
C42         C776   1.477       .  S
O43        Fe937   2.078   1_554  S
C44         C850   1.478       .  S
Fe45         O61   2.051       .  S
Fe45         O51   2.049       .  S
Fe45         O58   2.057       .  S
Fe45         O50   2.048       .  S
Fe45         O56   1.975       .  S
Fe46         O49   2.080       .  S
Fe46         O53   2.073       .  S
Fe46         O57   2.085       .  S
Fe46         O62   2.065       .  S
Fe46         O56   1.991       .  S
Fe47         O65   2.055       .  S
Fe47         O52   2.071       .  S
Fe47         O59   2.089       .  S
Fe47         O48   2.071       .  S
Fe47         O56   1.983       .  S
O48          C55   1.268       .  A
O49          C63   1.274       .  A
O50          C55   1.267       .  A
O51          C54   1.266       .  A
O52          C64   1.269       .  A
O53          C66   1.269       .  A
C54          O59   1.271       .  A
C54         C722   1.481       .  S
C55         C706   1.471       .  S
O57          C60   1.272       .  A
O58          C60   1.267       .  A
C60         C670   1.480       .  S
O61          C66   1.265       .  A
O62          C64   1.269       .  A
C63          O65   1.267       .  A
C63         C796   1.476       .  S
C64         C778   1.479       .  S
C66         C688   1.471       .  S
Fe67         O83   2.075   1_556  S
Fe67         O73   2.047   1_556  S
Fe67        O992   2.052       .  S
Fe67        O984   2.061       .  S
Fe67        O990   1.966   1_556  S
Fe68         O79   2.089       .  S
Fe68         O84   2.045       .  S
Fe68        O983   2.082       .  S
Fe68        O987   2.058       .  S
Fe68         O78   1.971       .  S
Fe69         O74   2.085       .  S
Fe69         O70   2.067       .  S
Fe69        O999   2.049       .  S
Fe69        O993   2.086       .  S
Fe69         O78   1.976       .  S
O70          C77   1.265       .  A
O71        Fe980   2.087       .  S
O71          C85   1.272       .  A
O72        Fe979   2.058       .  S
O72          C77   1.267       .  A
O73          C76   1.270       .  A
O74          C86   1.274       .  A
O75        Fe980   2.059       .  S
O75          C88   1.267       .  A
C76          O81   1.275       .  A
C76         C614   1.477       .  S
C77         C598   1.478       .  S
O78        Fe979   1.969       .  S
O79          C82   1.274       .  A
O80        Fe979   2.052       .  S
O80          C82   1.270       .  A
O81        Fe981   2.093       .  S
C82         C632   1.480       .  S
O83          C88   1.270       .  A
O84          C86   1.266       .  A
C85          O87   1.264       .  A
C85         C884   1.477       .  S
C86         C902   1.472       .  S
O87        Fe981   2.047       .  S
C88         C652   1.478       .  S
Fe89        O105   2.052       .  S
Fe89         O95   2.063       .  S
Fe89       O1014   2.062   1_554  S
Fe89       O1006   2.049   1_554  S
Fe89       O1012   1.974       .  S
Fe90        O101   2.070       .  S
Fe90        O106   2.075       .  S
Fe90       O1005   2.061       .  S
Fe90       O1009   2.077       .  S
Fe90        O100   1.980       .  S
Fe91         O96   2.068       .  S
Fe91         O92   2.074       .  S
Fe91       O1021   2.068       .  S
Fe91       O1015   2.078       .  S
Fe91        O100   1.975       .  S
O92          C99   1.268       .  A
O93       Fe1002   2.064       .  S
O93         C107   1.270       .  A
O94       Fe1001   2.045       .  S
O94          C99   1.265       .  A
O95          C98   1.268       .  A
O96         C108   1.269       .  A
O97       Fe1002   2.084       .  S
O97         C110   1.272       .  A
C98         O103   1.271       .  A
C98         C724   1.482       .  S
C99         C704   1.471       .  S
O100      Fe1001   1.972       .  S
O101        C104   1.271       .  A
O102      Fe1001   2.063       .  S
O102        C104   1.269       .  A
O103      Fe1003   2.084       .  S
C104        C560   1.475       .  S
O105        C110   1.267       .  A
O106        C108   1.271       .  A
C107        O109   1.268       .  A
C107        C544   1.477       .  S
C108        C526   1.476       .  S
O109      Fe1003   2.066       .  S
C110        C580   1.477       .  S
Fe111       O127   2.041       .  S
Fe111       O117   2.090       .  S
Fe111       O124   2.076       .  S
Fe111       O116   2.042       .  S
Fe111       O122   1.945       .  S
Fe112       O115   2.054       .  S
Fe112       O119   2.101       .  S
Fe112       O123   2.055       .  S
Fe112       O128   2.098       .  S
Fe112       O122   1.955       .  S
Fe113       O131   2.080       .  S
Fe113       O118   2.053       .  S
Fe113       O125   2.055       .  S
Fe113       O114   2.091       .  S
Fe113       O122   1.953       .  S
O114        C121   1.272       .  A
O115        C129   1.268       .  A
O116        C121   1.263       .  A
O117        C120   1.274       .  A
O118        C130   1.269       .  A
O119        C132   1.277       .  A
C120        O125   1.268       .  A
C120        C616   1.475       .  S
C121        C596   1.469       .  S
O123        C126   1.266       .  A
O124        C126   1.272       .  A
C126        C490   1.476       .  S
O127        C132   1.266       .  A
O128        C130   1.277       .  A
C129        O131   1.270       .  A
C129        C542   1.477       .  S
C130        C524   1.475       .  S
C132        C508   1.474       .  S
Fe133       O149   2.085       .  S
Fe133       O139   2.038       .  S
Fe133       O146   2.045       .  S
Fe133       O138   2.082       .  S
Fe133       O144   1.953       .  S
Fe134       O137   2.081       .  S
Fe134       O141   2.057       .  S
Fe134       O145   2.089       .  S
Fe134       O150   2.038       .  S
Fe134       O144   1.958       .  S
Fe135       O153   2.054       .  S
Fe135       O140   2.114       .  S
Fe135       O147   2.110       .  S
Fe135       O136   2.055       .  S
Fe135       O144   1.962       .  S
O136        C143   1.265       .  A
O137        C151   1.271       .  A
O138        C143   1.272       .  A
O139        C142   1.268       .  A
O140        C152   1.279       .  A
O141        C154   1.267       .  A
C142        O147   1.278       .  A
C142        C436   1.487       .  S
C143        C416   1.478       .  S
O145        C148   1.272       .  A
O146        C148   1.267       .  A
C148        C562   1.478       .  S
O149        C154   1.273       .  A
O150        C152   1.266       .  A
C151        O153   1.265       .  A
C151        C454   1.473       .  S
C152        C472   1.477       .  S
C154        C578   1.480       .  S
Fe155       O171   2.069   1_556  S
Fe155       O161   2.071   1_556  S
Fe155      O1080   2.066       .  S
Fe155      O1072   2.057       .  S
Fe155      O1078   1.978       .  S
Fe156       O167   2.064       .  S
Fe156       O172   2.066       .  S
Fe156      O1071   2.054       .  S
Fe156      O1075   2.068       .  S
Fe156       O166   1.976       .  S
Fe157       O162   2.077       .  S
Fe157       O158   2.080       .  S
Fe157      O1087   2.072       .  S
Fe157      O1081   2.070       .  S
Fe157       O166   1.980       .  S
O158        C165   1.270       .  A
O159      Fe1068   2.064   1_554  S
O159        C173   1.269       .  A
O160      Fe1067   2.056       .  S
O160        C165   1.270       .  A
O161        C164   1.269       .  A
O162        C174   1.270       .  A
O163      Fe1068   2.067   1_554  S
O163        C176   1.268       .  A
C164        O169   1.268       .  A
C164        C364   1.478       .  S
C165        C344   1.481       .  S
O166      Fe1067   1.976       .  S
O167        C170   1.268       .  A
O168      Fe1067   2.062       .  S
O168        C170   1.269       .  A
O169      Fe1069   2.073       .  S
C170        C488   1.476       .  S
O171        C176   1.271       .  A
O172        C174   1.269       .  A
C173        O175   1.268       .  A
C173        C380   1.479       .  S
C174        C398   1.485       .  S
O175      Fe1069   2.068       .  S
C176        C506   1.477       .  S
Fe177       O193   2.069   1_556  S
Fe177       O183   2.039   1_556  S
Fe177      O1102   2.056       .  S
Fe177      O1094   2.065       .  S
Fe177      O1100   1.957       .  S
Fe178       O189   2.069       .  S
Fe178       O194   2.071       .  S
Fe178      O1093   2.059       .  S
Fe178      O1097   2.087       .  S
Fe178       O188   1.968       .  S
Fe179       O184   2.081       .  S
Fe179       O180   2.081       .  S
Fe179      O1109   2.081       .  S
Fe179      O1103   2.088       .  S
Fe179       O188   1.974       .  S
O180        C187   1.269       .  A
O181      Fe1090   2.062       .  S
O181        C195   1.267       .  A
O182      Fe1089   2.056       .  S
O182        C187   1.266       .  A
O183        C186   1.266       .  A
O184        C196   1.273       .  A
O185      Fe1090   2.084       .  S
O185        C198   1.274       .  A
C186        O191   1.276       .  A
C186        C832   1.472       .  S
C187        C812   1.478       .  S
O188      Fe1089   1.965       .  S
O189        C192   1.267       .  A
O190      Fe1089   2.062       .  S
O190        C192   1.269       .  A
O191      Fe1091   2.099       .  S
C192        C308   1.477       .  S
O193        C198   1.269       .  A
O194        C196   1.275       .  A
C195        O197   1.266       .  A
C195        C452   1.475       .  S
C196        C470   1.482       .  S
O197      Fe1091   2.070       .  S
C198        C326   1.480       .  S
Fe199       O215   2.093       .  S
Fe199       O205   2.040       .  S
Fe199       O212   2.041       .  S
Fe199       O204   2.083       .  S
Fe199       O210   1.968       .  S
Fe200       O203   2.083       .  S
Fe200       O207   2.055       .  S
Fe200       O211   2.093       .  S
Fe200       O216   2.058       .  S
Fe200       O210   1.968       .  S
Fe201       O219   2.059       .  S
Fe201       O206   2.090       .  S
Fe201       O213   2.094       .  S
Fe201       O202   2.067       .  S
Fe201       O210   1.971       .  S
O202        C209   1.268       .  A
O203        C217   1.273       .  A
O204        C209   1.271       .  A
O205        C208   1.267       .  A
O206        C218   1.273       .  A
O207        C220   1.266       .  A
C208        O213   1.274       .  A
C208        C760   1.475       .  S
C209        C742   1.480       .  S
O211        C214   1.274       .  A
O212        C214   1.265       .  A
C214        C310   1.471       .  S
O215        C220   1.274       .  A
O216        C218   1.268       .  A
C217        O219   1.268       .  A
C217        C382   1.480       .  S
C218        C400   1.481       .  S
C220        C328   1.482       .  S
Fe221       O237   2.054       .  S
Fe221       O227   2.072       .  S
Fe221      O1146   2.073   1_554  S
Fe221      O1138   2.046   1_554  S
Fe221      O1144   1.968       .  S
Fe222       O233   2.066       .  S
Fe222       O238   2.071       .  S
Fe222      O1137   2.055       .  S
Fe222      O1141   2.084       .  S
Fe222       O232   1.972       .  S
Fe223       O228   2.059       .  S
Fe223       O224   2.096       .  S
Fe223      O1153   2.090       .  S
Fe223      O1147   2.065       .  S
Fe223       O232   1.982       .  S
O224        C231   1.275       .  A
O225      Fe1134   2.049   1_554  S
O225        C239   1.269       .  A
O226      Fe1133   2.039       .  S
O226        C231   1.265       .  A
O227        C230   1.269       .  A
O228        C240   1.266       .  A
O229      Fe1134   2.080   1_554  S
O229        C242   1.271       .  A
C230        O235   1.266       .  A
C230        C434   1.484       .  S
C231        C418   1.472       .  S
O232      Fe1133   1.967       .  S
O233        C236   1.268       .  A
O234      Fe1133   2.076       .  S
O234        C236   1.271       .  A
O235      Fe1135   2.067       .  S
C236        C668   1.484       .  S
O237        C242   1.269       .  A
O238        C240   1.270       .  A
C239        O241   1.273       .  A
C239        C290   1.483       .  S
C240        C272   1.478       .  S
O241      Fe1135   2.089       .  S
C242        C686   1.479       .  S
Fe243       O259   2.057       .  S
Fe243       O249   2.067       .  S
Fe243       O256   2.066       .  S
Fe243       O248   2.038       .  S
Fe243       O254   1.973       .  S
Fe244       O247   2.053       .  S
Fe244       O251   2.070       .  S
Fe244       O255   2.063       .  S
Fe244       O260   2.051       .  S
Fe244       O254   1.974       .  S
Fe245       O263   2.078       .  S
Fe245       O250   2.082       .  S
Fe245       O257   2.076       .  S
Fe245       O246   2.095       .  S
Fe245       O254   1.992       .  S
O246        C253   1.273       .  A
O247        C261   1.268       .  A
O248        C253   1.263       .  A
O249        C252   1.270       .  A
O250        C262   1.273       .  A
O251        C264   1.268       .  A
C252        O257   1.270       .  A
C252        C362   1.481       .  S
C253        C346   1.471       .  S
O255        C258   1.266       .  A
O256        C258   1.269       .  A
C258        C634   1.479       .  S
O259        C264   1.268       .  A
O260        C262   1.266       .  A
C261        O263   1.270       .  A
C261        C292   1.481       .  S
C262        C274   1.472       .  S
C264        C650   1.477       .  S
C265        C273   1.486       .  S
C265        C266   1.403       .  A
C265        C270   1.406       .  A
C266        C267   1.401       .  A
C266        H275   1.083       .  S
C267        C268   1.410       .  A
C267        H276   1.081       .  S
C268        C271   1.487       .  S
C268        C269   1.402       .  A
C269        C270   1.395       .  A
C269        H277   1.084       .  S
C270        H278   1.082       .  S
C271        H279   1.087       .  S
C271        C272   1.346       .  D
C272        H280   1.084       .  S
C273        H281   1.087       .  S
C273        C274   1.343       .  D
C274        H282   1.086       .  S
C283        C291   1.488       .  S
C283        C284   1.402       .  A
C283        C288   1.410       .  A
C284        C285   1.392       .  A
C284        H293   1.083       .  S
C285        C286   1.402       .  A
C285        H294   1.084       .  S
C286        C289   1.487       .  S
C286        C287   1.409       .  A
C287        C288   1.404       .  A
C287        H295   1.080       .  S
C288        H296   1.080       .  S
C289        H297   1.087       .  S
C289        C290   1.349       .  D
C290        H298   1.084       .  S
C291        H299   1.087       .  S
C291        C292   1.348       .  D
C292        H300   1.083       .  S
C301        C309   1.486       .  S
C301        C302   1.401       .  A
C301        C306   1.407       .  A
C302        C303   1.401       .  A
C302        H311   1.084       .  S
C303        C304   1.412       .  A
C303        H312   1.079       .  S
C304        C307   1.491       .  S
C304        C305   1.402       .  A
C305        C306   1.395       .  A
C305        H313   1.084       .  S
C306        H314   1.082       .  S
C307        H315   1.088       .  S
C307        C308   1.345       .  D
C308        H316   1.083       .  S
C309        H317   1.087       .  S
C309        C310   1.344       .  D
C310        H318   1.086       .  S
C319        C327   1.493       .  S
C319        C320   1.403       .  A
C319        C324   1.411       .  A
C320        C321   1.399       .  A
C320        H329   1.083       .  S
C321        C322   1.409       .  A
C321        H330   1.082       .  S
C322        C325   1.492       .  S
C322        C323   1.403       .  A
C323        C324   1.403       .  A
C323        H331   1.083       .  S
C324        H332   1.081       .  S
C325        H333   1.086       .  S
C325        C326   1.345       .  D
C326        H334   1.086       .  S
C327        H335   1.087       .  S
C327        C328   1.347       .  D
C328        H336   1.085       .  S
C337        C345   1.487       .  S
C337        C338   1.403       .  A
C337        C342   1.406       .  A
C338        C339   1.406       .  A
C338        H347   1.083       .  S
C339        C340   1.411   1_565  A
C339        H348   1.081       .  S
C340        C343   1.485       .  S
C340        C341   1.401       .  A
C341        C342   1.391   1_545  A
C341        H349   1.084       .  S
C342        H350   1.083       .  S
C343        H351   1.088       .  S
C343        C344   1.346       .  D
C344        H352   1.085       .  S
C345        H353   1.086       .  S
C345        C346   1.344       .  D
C346        H354   1.087       .  S
C355        C363   1.485       .  S
C355        C356   1.405   1_545  A
C355        C360   1.405       .  A
C356        C357   1.402       .  A
C356        H365   1.083       .  S
C357        C358   1.406       .  A
C357        H366   1.083       .  S
C358        C361   1.485       .  S
C358        C359   1.404   1_565  A
C359        C360   1.399       .  A
C359        H367   1.083       .  S
C360        H368   1.083       .  S
C361        H369   1.087       .  S
C361        C362   1.347       .  D
C362        H370   1.086       .  S
C363        H371   1.087       .  S
C363        C364   1.347       .  D
C364        H372   1.086       .  S
C373        C381   1.491       .  S
C373        C374   1.408       .  A
C373        C378   1.403       .  A
C374        C375   1.400       .  A
C374        H383   1.080       .  S
C375        C376   1.410       .  A
C375        H384   1.079       .  S
C376        C379   1.493       .  S
C376        C377   1.404       .  A
C377        C378   1.398       .  A
C377        H385   1.083       .  S
C378        H386   1.083       .  S
C379        H387   1.087       .  S
C379        C380   1.348       .  D
C380        H388   1.082       .  S
C381        H389   1.087       .  S
C381        C382   1.348       .  D
C382        H390   1.084       .  S
C391        C399   1.495       .  S
C391        C392   1.406       .  A
C391        C396   1.408       .  A
C392        C393   1.404       .  A
C392        H401   1.083       .  S
C393        C394   1.408       .  A
C393        H402   1.081       .  S
C394        C397   1.492       .  S
C394        C395   1.405       .  A
C395        C396   1.398       .  A
C395        H403   1.083       .  S
C396        H404   1.081       .  S
C397        H405   1.087       .  S
C397        C398   1.350       .  D
C398        H406   1.084       .  S
C399        H407   1.087       .  S
C399        C400   1.349       .  D
C400        H408   1.084       .  S
C409        C417   1.486       .  S
C409        C410   1.402   1_455  A
C409        C414   1.406       .  A
C410        C411   1.402       .  A
C410        H419   1.083       .  S
C411        C412   1.411       .  A
C411        H420   1.080       .  S
C412        C415   1.490       .  S
C412        C413   1.403       .  A
C413        C414   1.395   1_655  A
C413        H421   1.083   1_655  S
C414        H422   1.083       .  S
C415        H423   1.087       .  S
C415        C416   1.346       .  D
C416        H424   1.083       .  S
C417        H425   1.086       .  S
C417        C418   1.343       .  D
C418        H426   1.087       .  S
C427        C435   1.489       .  S
C427        C428   1.407       .  A
C427        C432   1.403       .  A
C428        C429   1.405       .  A
C428        H437   1.081       .  S
C429        C430   1.412   1_655  A
C429        H438   1.080   1_655  S
C430        C433   1.493       .  S
C430        C431   1.403   1_455  A
C431        C432   1.395       .  A
C431        H439   1.083       .  S
C432        H440   1.084       .  S
C433        H441   1.087       .  S
C433        C434   1.349       .  D
C434        H442   1.083       .  S
C435        H443   1.087       .  S
C435        C436   1.352       .  D
C436        H444   1.084       .  S
C445        C453   1.481       .  S
C445        C446   1.404       .  A
C445        C450   1.405       .  A
C446        C447   1.400       .  A
C446        H455   1.083       .  S
C447        C448   1.405       .  A
C447        H456   1.083       .  S
C448        C451   1.479       .  S
C448        C449   1.403       .  A
C449        C450   1.396       .  A
C449        H457   1.083       .  S
C450        H458   1.083       .  S
C451        H459   1.087       .  S
C451        C452   1.345       .  D
C452        H460   1.086       .  S
C453        H461   1.087       .  S
C453        C454   1.343       .  D
C454        H462   1.086       .  S
C463        C471   1.492       .  S
C463        C464   1.404       .  A
C463        C468   1.408       .  A
C464        C465   1.406       .  A
C464        H473   1.083       .  S
C465        C466   1.411       .  A
C465        H474   1.081       .  S
C466        C469   1.489       .  S
C466        C467   1.401       .  A
C467        C468   1.394       .  A
C467        H475   1.084       .  S
C468        H476   1.082       .  S
C469        H477   1.087       .  S
C469        C470   1.345       .  D
C470        H478   1.085       .  S
C471        H479   1.086       .  S
C471        C472   1.345       .  D
C472        H480   1.087       .  S
C481        C489   1.488       .  S
C481        C482   1.404       .  A
C481        C486   1.410       .  A
C482        C483   1.395       .  A
C482        H491   1.083       .  S
C483        C484   1.401       .  A
C483        H492   1.084       .  S
C484        C487   1.482       .  S
C484        C485   1.406       .  A
C485        C486   1.399       .  A
C485        H493   1.081       .  S
C486        H494   1.079       .  S
C487        H495   1.087       .  S
C487        C488   1.346       .  D
C488        H496   1.085       .  S
C489        H497   1.087       .  S
C489        C490   1.347       .  D
C490        H498   1.082       .  S
C499        C507   1.492       .  S
C499        C500   1.405       .  A
C499        C504   1.410       .  A
C500        C501   1.401       .  A
C500        H509   1.083       .  S
C501        C502   1.408       .  A
C501        H510   1.082       .  S
C502        C505   1.484       .  S
C502        C503   1.400       .  A
C503        C504   1.396       .  A
C503        H511   1.084       .  S
C504        H512   1.080       .  S
C505        H513   1.087       .  S
C505        C506   1.344       .  D
C506        H514   1.086       .  S
C507        H515   1.087       .  S
C507        C508   1.345       .  D
C508        H516   1.084       .  S
C517        C525   1.482       .  S
C517        C518   1.404       .  A
C517        C522   1.405       .  A
C518        C519   1.400       .  A
C518        H527   1.083       .  S
C519        C520   1.405       .  A
C519        H528   1.084       .  S
C520        C523   1.480       .  S
C520        C521   1.401       .  A
C521        C522   1.398       .  A
C521        H529   1.083       .  S
C522        H530   1.083       .  S
C523        H531   1.086       .  S
C523        C524   1.342       .  D
C524        H532   1.087       .  S
C525        H533   1.087       .  S
C525        C526   1.346       .  D
C526        H534   1.086       .  S
C535        C543   1.487       .  S
C535        C536   1.402       .  A
C535        C540   1.408       .  A
C536        C537   1.396       .  A
C536        H545   1.083       .  S
C537        C538   1.404       .  A
C537        H546   1.084       .  S
C538        C541   1.490       .  S
C538        C539   1.410       .  A
C539        C540   1.399       .  A
C539        H547   1.078       .  S
C540        H548   1.081       .  S
C541        H549   1.087       .  S
C541        C542   1.347       .  D
C542        H550   1.082       .  S
C543        H551   1.087       .  S
C543        C544   1.346       .  D
C544        H552   1.084       .  S
C553        C561   1.486       .  S
C553        C554   1.403       .  A
C553        C558   1.409       .  A
C554        C555   1.395       .  A
C554        H563   1.084       .  S
C555        C556   1.408       .  A
C555        H564   1.081       .  S
C556        C559   1.488       .  S
C556        C557   1.404       .  A
C557        C558   1.401       .  A
C557        H565   1.083       .  S
C558        H566   1.080       .  S
C559        H567   1.087       .  S
C559        C560   1.346       .  D
C560        H568   1.084       .  S
C561        H569   1.087       .  S
C561        C562   1.347       .  D
C562        H570   1.084       .  S
C571        C579   1.495       .  S
C571        C572   1.405       .  A
C571        C576   1.409       .  A
C572        C573   1.402       .  A
C572        H581   1.083       .  S
C573        C574   1.409       .  A
C573        H582   1.080       .  S
C574        C577   1.491       .  S
C574        C575   1.402       .  A
C575        C576   1.396       .  A
C575        H583   1.084       .  S
C576        H584   1.079       .  S
C577        H585   1.087       .  S
C577        C578   1.347       .  D
C578        H586   1.083       .  S
C579        H587   1.087       .  S
C579        C580   1.348       .  D
C580        H588   1.082       .  S
C589        C597   1.484       .  S
C589        C590   1.404   1_565  A
C589        C594   1.409       .  A
C590        C591   1.393       .  A
C590        H599   1.084       .  S
C591        C592   1.404       .  A
C591        H600   1.083       .  S
C592        C595   1.481       .  S
C592        C593   1.403   1_545  A
C593        C594   1.401       .  A
C593        H601   1.083       .  S
C594        H602   1.081       .  S
C595        H603   1.086       .  S
C595        C596   1.344       .  D
C596        H604   1.087       .  S
C597        H605   1.088       .  S
C597        C598   1.347       .  D
C598        H606   1.084       .  S
C607        C615   1.481       .  S
C607        C608   1.403   1_545  A
C607        C612   1.405       .  A
C608        C609   1.401       .  A
C608        H617   1.083       .  S
C609        C610   1.406       .  A
C609        H618   1.083       .  S
C610        C613   1.480       .  S
C610        C611   1.402   1_565  A
C611        C612   1.397       .  A
C611        H619   1.083       .  S
C612        H620   1.083       .  S
C613        H621   1.088       .  S
C613        C614   1.345       .  D
C614        H622   1.086       .  S
C615        H623   1.087       .  S
C615        C616   1.343       .  D
C616        H624   1.086       .  S
C625        C633   1.488       .  S
C625        C626   1.409       .  A
C625        C630   1.403       .  A
C626        C627   1.401       .  A
C626        H635   1.081       .  S
C627        C628   1.408       .  A
C627        H636   1.081       .  S
C628        C631   1.487       .  S
C628        C629   1.403       .  A
C629        C630   1.396       .  A
C629        H637   1.084       .  S
C630        H638   1.083       .  S
C631        H639   1.087       .  S
C631        C632   1.348       .  D
C632        H640   1.084       .  S
C633        H641   1.087       .  S
C633        C634   1.347       .  D
C634        H642   1.084       .  S
C643        C651   1.489       .  S
C643        C644   1.409       .  A
C643        C648   1.404       .  A
C644        C645   1.399       .  A
C644        H653   1.080       .  S
C645        C646   1.408       .  A
C645        H654   1.081       .  S
C646        C649   1.487       .  S
C646        C647   1.403       .  A
C647        C648   1.397       .  A
C647        H655   1.083       .  S
C648        H656   1.084       .  S
C649        H657   1.087       .  S
C649        C650   1.347       .  D
C650        H658   1.084       .  S
C651        H659   1.087       .  S
C651        C652   1.348       .  D
C652        H660   1.083       .  S
C661        C669   1.493       .  S
C661        C662   1.404       .  A
C661        C666   1.407       .  A
C662        C663   1.403       .  A
C662        H671   1.083       .  S
C663        C664   1.410       .  A
C663        H672   1.081       .  S
C664        C667   1.493       .  S
C664        C665   1.404       .  A
C665        C666   1.398       .  A
C665        H673   1.083       .  S
C666        H674   1.082       .  S
C667        H675   1.087       .  S
C667        C668   1.349       .  D
C668        H676   1.084       .  S
C669        H677   1.087       .  S
C669        C670   1.347       .  D
C670        H678   1.085       .  S
C679        C687   1.488       .  S
C679        C680   1.403       .  A
C679        C684   1.407       .  A
C680        C681   1.402       .  A
C680        H689   1.083       .  S
C681        C682   1.410       .  A
C681        H690   1.080       .  S
C682        C685   1.489       .  S
C682        C683   1.402       .  A
C683        C684   1.393       .  A
C683        H691   1.083       .  S
C684        H692   1.081       .  S
C685        H693   1.087       .  S
C685        C686   1.347       .  D
C686        H694   1.083       .  S
C687        H695   1.087       .  S
C687        C688   1.345       .  D
C688        H696   1.084       .  S
C697        C705   1.477       .  S
C697        C698   1.403   1_455  A
C697        C702   1.405       .  A
C698        C699   1.397       .  A
C698        H707   1.083       .  S
C699        C700   1.404       .  A
C699        H708   1.083       .  S
C700        C703   1.477       .  S
C700        C701   1.403   1_655  A
C701        C702   1.397       .  A
C701        H709   1.083       .  S
C702        H710   1.083       .  S
C703        H711   1.087       .  S
C703        C704   1.344       .  D
C704        H712   1.086       .  S
C705        H713   1.088       .  S
C705        C706   1.344       .  D
C706        H714   1.086       .  S
C715        C723   1.488       .  S
C715        C716   1.406       .  A
C715        C720   1.405       .  A
C716        C717   1.402   1_655  A
C716        H725   1.083   1_655  S
C717        C718   1.405       .  A
C717        H726   1.083       .  S
C718        C721   1.486       .  S
C718        C719   1.405   1_455  A
C719        C720   1.401       .  A
C719        H727   1.083       .  S
C720        H728   1.083       .  S
C721        H729   1.087       .  S
C721        C722   1.349       .  D
C722        H730   1.085       .  S
C723        H731   1.087       .  S
C723        C724   1.349       .  D
C724        H732   1.085       .  S
C733        C741   1.487       .  S
C733        C734   1.406       .  A
C733        C738   1.405       .  A
C734        C735   1.404       .  A
C734        H743   1.083       .  S
C735        C736   1.406       .  A
C735        H744   1.083       .  S
C736        C739   1.484       .  S
C736        C737   1.403       .  A
C737        C738   1.398       .  A
C737        H745   1.083       .  S
C738        H746   1.083       .  S
C739        H747   1.087       .  S
C739        C740   1.348       .  D
C740        H748   1.086       .  S
C741        H749   1.087       .  S
C741        C742   1.347       .  D
C742        H750   1.086       .  S
C751        C759   1.478       .  S
C751        C752   1.403       .  A
C751        C756   1.405       .  A
C752        C753   1.396       .  A
C752        H761   1.083       .  S
C753        C754   1.404       .  A
C753        H762   1.084       .  S
C754        C757   1.478       .  S
C754        C755   1.403       .  A
C755        C756   1.401       .  A
C755        H763   1.083       .  S
C756        H764   1.083       .  S
C757        H765   1.087       .  S
C757        C758   1.343       .  D
C758        H766   1.086       .  S
C759        H767   1.088       .  S
C759        C760   1.345       .  D
C760        H768   1.086       .  S
C769        C777   1.487       .  S
C769        C770   1.403       .  A
C769        C774   1.406       .  A
C770        C771   1.400       .  A
C770        H779   1.084       .  S
C771        C772   1.405       .  A
C771        H780   1.083       .  S
C772        C775   1.491       .  S
C772        C773   1.409       .  A
C773        C774   1.397       .  A
C773        H781   1.081       .  S
C774        H782   1.082       .  S
C775        H783   1.086       .  S
C775        C776   1.347       .  D
C776        H784   1.083       .  S
C777        H785   1.087       .  S
C777        C778   1.348       .  D
C778        H786   1.086       .  S
C787        C795   1.487       .  S
C787        C788   1.401       .  A
C787        C792   1.410       .  A
C788        C789   1.395       .  A
C788        H797   1.083       .  S
C789        C790   1.404       .  A
C789        H798   1.084       .  S
C790        C793   1.485       .  S
C790        C791   1.407       .  A
C791        C792   1.400       .  A
C791        H799   1.080       .  S
C792        H800   1.081       .  S
C793        H801   1.087       .  S
C793        C794   1.348       .  D
C794        H802   1.084       .  S
C795        H803   1.087       .  S
C795        C796   1.344       .  D
C796        H804   1.084       .  S
C805        C813   1.485       .  S
C805        C806   1.404       .  A
C805        C810   1.406       .  A
C806        C807   1.401       .  A
C806        H815   1.083       .  S
C807        C808   1.405       .  A
C807        H816   1.083       .  S
C808        C811   1.482       .  S
C808        C809   1.403       .  A
C809        C810   1.399       .  A
C809        H817   1.083       .  S
C810        H818   1.083       .  S
C811        H819   1.088       .  S
C811        C812   1.347       .  D
C812        H820   1.086       .  S
C813        H821   1.087       .  S
C813        C814   1.347       .  D
C814        H822   1.086       .  S
C823        C831   1.487       .  S
C823        C824   1.403       .  A
C823        C828   1.406       .  A
C824        C825   1.403       .  A
C824        H833   1.083       .  S
C825        C826   1.409       .  A
C825        H834   1.081       .  S
C826        C829   1.485       .  S
C826        C827   1.402       .  A
C827        C828   1.393       .  A
C827        H835   1.084       .  S
C828        H836   1.083       .  S
C829        H837   1.088       .  S
C829        C830   1.346       .  D
C830        H838   1.085       .  S
C831        H839   1.086       .  S
C831        C832   1.343       .  D
C832        H840   1.087       .  S
C841        C849   1.491       .  S
C841        C842   1.403       .  A
C841        C846   1.409       .  A
C842        C843   1.401       .  A
C842        H851   1.083       .  S
C843        C844   1.409       .  A
C843        H852   1.082       .  S
C844        C847   1.490       .  S
C844        C845   1.403       .  A
C845        C846   1.399       .  A
C845        H853   1.083       .  S
C846        H854   1.082       .  S
C847        H855   1.087       .  S
C847        C848   1.346       .  D
C848        H856   1.085       .  S
C849        H857   1.087       .  S
C849        C850   1.345       .  D
C850        H858   1.085       .  S
C859        C867   1.486       .  S
C859        C860   1.403       .  A
C859        C864   1.409       .  A
C860        C861   1.397       .  A
C860        H869   1.083       .  S
C861        C862   1.407       .  A
C861        H870   1.082       .  S
C862        C865   1.483       .  S
C862        C863   1.401       .  A
C863        C864   1.397       .  A
C863        H871   1.083       .  S
C864        H872   1.081       .  S
C865        H873   1.087       .  S
C865        C866   1.344       .  D
C866        H874   1.085       .  S
C867        H875   1.087       .  S
C867        C868   1.344       .  D
C868        H876   1.084       .  S
C877        C885   1.490       .  S
C877        C878   1.402       .  A
C877        C882   1.410       .  A
C878        C879   1.400       .  A
C878        H887   1.083       .  S
C879        C880   1.411       .  A
C879        H888   1.081       .  S
C880        C883   1.491       .  S
C880        C881   1.402       .  A
C881        C882   1.398       .  A
C881        H889   1.083       .  S
C882        H890   1.082       .  S
C883        H891   1.087       .  S
C883        C884   1.345       .  D
C884        H892   1.085       .  S
C885        H893   1.087       .  S
C885        C886   1.343       .  D
C886        H894   1.085       .  S
C895        C903   1.485       .  S
C895        C896   1.402       .  A
C895        C900   1.410       .  A
C896        C897   1.396       .  A
C896        H905   1.083       .  S
C897        C898   1.407       .  A
C897        H906   1.083       .  S
C898        C901   1.482       .  S
C898        C899   1.400       .  A
C899        C900   1.399       .  A
C899        H907   1.083       .  S
C900        H908   1.081       .  S
C901        H909   1.086       .  S
C901        C902   1.342       .  D
C902        H910   1.087       .  S
C903        H911   1.087       .  S
C903        C904   1.344       .  D
C904        H912   1.084       .  S
Fe913       O929   2.083       .  S
Fe913       O919   2.049       .  S
Fe913       O926   2.053       .  S
Fe913       O918   2.076       .  S
Fe913       O924   1.975       .  S
Fe914       O917   2.057       .  S
Fe914       O921   2.063       .  S
Fe914       O925   2.061       .  S
Fe914       O930   2.066       .  S
Fe914       O924   1.975       .  S
Fe915       O933   2.080       .  S
Fe915       O920   2.064       .  S
Fe915       O927   2.070       .  S
Fe915       O916   2.076       .  S
Fe915       O924   1.976       .  S
O916        C923   1.273       .  A
O917        C931   1.268       .  A
O918        C923   1.274       .  A
O919        C922   1.265       .  A
O920        C932   1.266       .  A
O921        C934   1.269       .  A
C922        O927   1.265       .  A
C922       C1742   1.479       .  S
C923       C1726   1.480       .  S
O925        C928   1.267       .  A
O926        C928   1.264       .  A
C928       C1778   1.470       .  S
O929        C934   1.274       .  A
O930        C932   1.268       .  A
C931        O933   1.274       .  A
C931       C1798   1.474       .  S
C932       C1816   1.478       .  S
C934       C1760   1.481       .  S
Fe935       O951   2.049       .  S
Fe935       O941   2.068       .  S
Fe936       O947   2.043   1_554  S
Fe936       O952   2.091   1_554  S
Fe936       O946   1.976   1_554  S
Fe937       O942   2.054       .  S
Fe937       O938   2.086       .  S
Fe937       O946   1.975       .  S
O938        C945   1.271       .  A
O939        C953   1.266       .  A
O940        C945   1.266       .  A
O941        C944   1.270       .  A
O942        C954   1.268       .  A
O943        C956   1.274       .  A
C944        O949   1.267       .  A
C944       C1670   1.471       .  S
C945       C1652   1.474       .  S
O947        C950   1.263       .  A
O948        C950   1.270       .  A
C950       C1780   1.470       .  S
O951        C956   1.266       .  A
O952        C954   1.274       .  A
C953        O955   1.269       .  A
C953       C1706   1.483       .  S
C954       C1688   1.480       .  S
C956       C1762   1.477       .  S
Fe957       O973   2.053       .  S
Fe957       O963   2.055       .  S
Fe957       O970   2.059       .  S
Fe957       O962   2.046       .  S
Fe957       O968   1.978       .  S
Fe958       O961   2.074       .  S
Fe958       O965   2.078       .  S
Fe958       O969   2.077       .  S
Fe958       O974   2.071       .  S
Fe958       O968   1.989       .  S
Fe959       O977   2.067       .  S
Fe959       O964   2.070       .  S
Fe959       O971   2.083       .  S
Fe959       O960   2.077       .  S
Fe959       O968   1.982       .  S
O960        C967   1.268       .  A
O961        C975   1.272       .  A
O962        C967   1.266       .  A
O963        C966   1.268       .  A
O964        C976   1.269       .  A
O965        C978   1.270       .  A
C966        O971   1.271       .  A
C966       C1634   1.479       .  S
C967       C1618   1.474       .  S
O969        C972   1.271       .  A
O970        C972   1.267       .  A
C972       C1582   1.477       .  S
O973        C978   1.265       .  A
O974        C976   1.270       .  A
C975        O977   1.269       .  A
C975       C1708   1.480       .  S
C976       C1690   1.481       .  S
C978       C1600   1.476       .  S
Fe979       O995   2.073       .  S
Fe979       O985   2.045       .  S
Fe980       O991   2.087   1_554  S
Fe980       O996   2.045   1_554  S
Fe980       O990   1.967       .  S
Fe981       O986   2.096   1_554  S
Fe981       O982   2.064   1_554  S
Fe981       O990   1.971       .  S
O982        C989   1.265       .  A
O983        C997   1.272       .  A
O984        C989   1.268       .  A
O985        C988   1.270       .  A
O986        C998   1.276       .  A
O987       C1000   1.265       .  A
C988        O993   1.274       .  A
C988       C1526   1.472       .  S
C989       C1510   1.477       .  S
O991        C994   1.272       .  A
O992        C994   1.268       .  A
C994       C1544   1.479       .  S
O995       C1000   1.268       .  A
O996        C998   1.266       .  A
C997        O999   1.265       .  A
C997       C1796   1.475       .  S
C998       C1814   1.474       .  S
C1000      C1564   1.478       .  S
Fe1001     O1017   2.051       .  S
Fe1001     O1007   2.062       .  S
Fe1002     O1013   2.074   1_554  S
Fe1002     O1018   2.077   1_554  S
Fe1002     O1012   1.986       .  S
Fe1003     O1008   2.070   1_554  S
Fe1003     O1004   2.072   1_554  S
Fe1003     O1012   1.978       .  S
O1004      C1011   1.268       .  A
O1005      C1019   1.269       .  A
O1006      C1011   1.267       .  A
O1007      C1010   1.269       .  A
O1008      C1020   1.269       .  A
O1009      C1022   1.270       .  A
C1010      O1015   1.271       .  A
C1010      C1636   1.478       .  S
C1011      C1616   1.471       .  S
O1013      C1016   1.270       .  A
O1014      C1016   1.268       .  A
C1016      C1472   1.478       .  S
O1017      C1022   1.265       .  A
O1018      C1020   1.271       .  A
C1019      O1021   1.268       .  A
C1019      C1456   1.477       .  S
C1020      C1438   1.480       .  S
C1022      C1492   1.476       .  S
Fe1023     O1039   2.044       .  S
Fe1023     O1029   2.083       .  S
Fe1023     O1036   2.073       .  S
Fe1023     O1028   2.039       .  S
Fe1023     O1034   1.958       .  S
Fe1024     O1027   2.057       .  S
Fe1024     O1031   2.103       .  S
Fe1024     O1035   2.065       .  S
Fe1024     O1040   2.100       .  S
Fe1024     O1034   1.966       .  S
Fe1025     O1043   2.077       .  S
Fe1025     O1030   2.055       .  S
Fe1025     O1037   2.054       .  S
Fe1025     O1026   2.089       .  S
Fe1025     O1034   1.965       .  S
O1026      C1033   1.271       .  A
O1027      C1041   1.268       .  A
O1028      C1033   1.263       .  A
O1029      C1032   1.273       .  A
O1030      C1042   1.269       .  A
O1031      C1044   1.277       .  A
C1032      O1037   1.267       .  A
C1032      C1528   1.472       .  S
C1033      C1508   1.469       .  S
O1035      C1038   1.268       .  A
O1036      C1038   1.271       .  A
C1038      C1402   1.481       .  S
O1039      C1044   1.266       .  A
O1040      C1042   1.277       .  A
C1041      O1043   1.269       .  A
C1041      C1454   1.478       .  S
C1042      C1436   1.476       .  S
C1044      C1420   1.479       .  S
Fe1045     O1061   2.081       .  S
Fe1045     O1051   2.045       .  S
Fe1045     O1058   2.055       .  S
Fe1045     O1050   2.076       .  S
Fe1045     O1056   1.967       .  S
Fe1046     O1049   2.084       .  S
Fe1046     O1053   2.057       .  S
Fe1046     O1057   2.087       .  S
Fe1046     O1062   2.042       .  S
Fe1046     O1056   1.968       .  S
Fe1047     O1065   2.061       .  S
Fe1047     O1052   2.106       .  S
Fe1047     O1059   2.101       .  S
Fe1047     O1048   2.063       .  S
Fe1047     O1056   1.973       .  S
O1048      C1055   1.267       .  A
O1049      C1063   1.271       .  A
O1050      C1055   1.271       .  A
O1051      C1054   1.268       .  A
O1052      C1064   1.277       .  A
O1053      C1066   1.267       .  A
C1054      O1059   1.275       .  A
C1054      C1348   1.487       .  S
C1055      C1328   1.481       .  S
O1057      C1060   1.272       .  A
O1058      C1060   1.269       .  A
C1060      C1474   1.483       .  S
O1061      C1066   1.272       .  A
O1062      C1064   1.267       .  A
C1063      O1065   1.266       .  A
C1063      C1366   1.477       .  S
C1064      C1384   1.478       .  S
C1066      C1490   1.479       .  S
Fe1067     O1083   2.071       .  S
Fe1067     O1073   2.068       .  S
Fe1068     O1079   2.071       .  S
Fe1068     O1084   2.067       .  S
Fe1068     O1078   1.979       .  S
Fe1069     O1074   2.078   1_554  S
Fe1069     O1070   2.076   1_554  S
Fe1069     O1078   1.979   1_554  S
O1070      C1077   1.270       .  A
O1071      C1085   1.269       .  A
O1072      C1077   1.270       .  A
O1073      C1076   1.269       .  A
O1074      C1086   1.271       .  A
O1075      C1088   1.268       .  A
C1076      O1081   1.268       .  A
C1076      C1276   1.477       .  S
C1077      C1256   1.478       .  S
O1079      C1082   1.268       .  A
O1080      C1082   1.268       .  A
C1082      C1400   1.482       .  S
O1083      C1088   1.271       .  A
O1084      C1086   1.270       .  A
C1085      O1087   1.270       .  A
C1085      C1292   1.476       .  S
C1086      C1310   1.484       .  S
C1088      C1418   1.480       .  S
Fe1089     O1105   2.060       .  S
Fe1089     O1095   2.047       .  S
Fe1090     O1101   2.074   1_554  S
Fe1090     O1106   2.069   1_554  S
Fe1090     O1100   1.962   1_554  S
Fe1091     O1096   2.092   1_554  S
Fe1091     O1092   2.074   1_554  S
Fe1091     O1100   1.968   1_554  S
O1092      C1099   1.268       .  A
O1093      C1107   1.266       .  A
O1094      C1099   1.268       .  A
O1095      C1098   1.267       .  A
O1096      C1108   1.276       .  A
O1097      C1110   1.274       .  A
C1098      O1103   1.274       .  A
C1098      C1744   1.470       .  S
C1099      C1724   1.477       .  S
O1101      C1104   1.268       .  A
O1102      C1104   1.268       .  A
C1104      C1220   1.476       .  S
O1105      C1110   1.267       .  A
O1106      C1108   1.275       .  A
C1107      O1109   1.269       .  A
C1107      C1364   1.480       .  S
C1108      C1382   1.485       .  S
C1110      C1238   1.477       .  S
Fe1111     O1127   2.085       .  S
Fe1111     O1117   2.038       .  S
Fe1111     O1124   2.042       .  S
Fe1111     O1116   2.073       .  S
Fe1111     O1122   1.960       .  S
Fe1112     O1115   2.083       .  S
Fe1112     O1119   2.056       .  S
Fe1112     O1123   2.092       .  S
Fe1112     O1128   2.055       .  S
Fe1112     O1122   1.961       .  S
Fe1113     O1131   2.050       .  S
Fe1113     O1118   2.091       .  S
Fe1113     O1125   2.093       .  S
Fe1113     O1114   2.060       .  S
Fe1113     O1122   1.967       .  S
O1114      C1121   1.267       .  A
O1115      C1129   1.274       .  A
O1116      C1121   1.271       .  A
O1117      C1120   1.267       .  A
O1118      C1130   1.273       .  A
O1119      C1132   1.267       .  A
C1120      O1125   1.273       .  A
C1120      C1672   1.474       .  S
C1121      C1654   1.473       .  S
O1123      C1126   1.274       .  A
O1124      C1126   1.265       .  A
C1126      C1222   1.471       .  S
O1127      C1132   1.273       .  A
O1128      C1130   1.267       .  A
C1129      O1131   1.267       .  A
C1129      C1294   1.474       .  S
C1130      C1312   1.479       .  S
C1132      C1240   1.479       .  S
Fe1133     O1149   2.053       .  S
Fe1133     O1139   2.072       .  S
Fe1134     O1145   2.064       .  S
Fe1134     O1150   2.070       .  S
Fe1134     O1144   1.972   1_556  S
Fe1135     O1140   2.066   1_554  S
Fe1135     O1136   2.096   1_554  S
Fe1135     O1144   1.980       .  S
O1136      C1143   1.275       .  A
O1137      C1151   1.271       .  A
O1138      C1143   1.267       .  A
O1139      C1142   1.270       .  A
O1140      C1152   1.268       .  A
O1141      C1154   1.271       .  A
C1142      O1147   1.266       .  A
C1142      C1346   1.483       .  S
C1143      C1330   1.473       .  S
O1145      C1148   1.267       .  A
O1146      C1148   1.270       .  A
C1148      C1580   1.482       .  S
O1149      C1154   1.268       .  A
O1150      C1152   1.270       .  A
C1151      O1153   1.274       .  A
C1151      C1202   1.484       .  S
C1152      C1184   1.480       .  S
C1154      C1598   1.481       .  S
Fe1155     O1171   2.053       .  S
Fe1155     O1161   2.059       .  S
Fe1155     O1168   2.058       .  S
Fe1155     O1160   2.037       .  S
Fe1155     O1166   1.974       .  S
Fe1156     O1159   2.059       .  S
Fe1156     O1163   2.077       .  S
Fe1156     O1167   2.068       .  S
Fe1156     O1172   2.060       .  S
Fe1156     O1166   1.978       .  S
Fe1157     O1175   2.075       .  S
Fe1157     O1162   2.080       .  S
Fe1157     O1169   2.075       .  S
Fe1157     O1158   2.091       .  S
Fe1157     O1166   1.993       .  S
O1158      C1165   1.272       .  A
O1159      C1173   1.269       .  A
O1160      C1165   1.263       .  A
O1161      C1164   1.268       .  A
O1162      C1174   1.273       .  A
O1163      C1176   1.270       .  A
C1164      O1169   1.269       .  A
C1164      C1274   1.476       .  S
C1165      C1258   1.470       .  S
O1167      C1170   1.266       .  A
O1168      C1170   1.267       .  A
C1170      C1546   1.479       .  S
O1171      C1176   1.268       .  A
O1172      C1174   1.268       .  A
C1173      O1175   1.269       .  A
C1173      C1204   1.483       .  S
C1174      C1186   1.475       .  S
C1176      C1562   1.480       .  S
C1177      C1185   1.486       .  S
C1177      C1178   1.403       .  A
C1177      C1182   1.405       .  A
C1178      C1179   1.402       .  A
C1178      H1187   1.083       .  S
C1179      C1180   1.409       .  A
C1179      H1188   1.081       .  S
C1180      C1183   1.488       .  S
C1180      C1181   1.404       .  A
C1181      C1182   1.396       .  A
C1181      H1189   1.084       .  S
C1182      H1190   1.083       .  S
C1183      H1191   1.087       .  S
C1183      C1184   1.347       .  D
C1184      H1192   1.085       .  S
C1185      H1193   1.087       .  S
C1185      C1186   1.345       .  D
C1186      H1194   1.087       .  S
C1195      C1203   1.489       .  S
C1195      C1196   1.403       .  A
C1195      C1200   1.410       .  A
C1196      C1197   1.393       .  A
C1196      H1205   1.083       .  S
C1197      C1198   1.401       .  A
C1197      H1206   1.084       .  S
C1198      C1201   1.487       .  S
C1198      C1199   1.409       .  A
C1199      C1200   1.405       .  A
C1199      H1207   1.081       .  S
C1200      H1208   1.081       .  S
C1201      H1209   1.087       .  S
C1201      C1202   1.348       .  D
C1202      H1210   1.085       .  S
C1203      H1211   1.087       .  S
C1203      C1204   1.348       .  D
C1204      H1212   1.084       .  S
C1213      C1221   1.487       .  S
C1213      C1214   1.402       .  A
C1213      C1218   1.408       .  A
C1214      C1215   1.401       .  A
C1214      H1223   1.084       .  S
C1215      C1216   1.411       .  A
C1215      H1224   1.080       .  S
C1216      C1219   1.488       .  S
C1216      C1217   1.402       .  A
C1217      C1218   1.394       .  A
C1217      H1225   1.084       .  S
C1218      H1226   1.081       .  S
C1219      H1227   1.087       .  S
C1219      C1220   1.345       .  D
C1220      H1228   1.083       .  S
C1221      H1229   1.087       .  S
C1221      C1222   1.344       .  D
C1222      H1230   1.085       .  S
C1231      C1239   1.490       .  S
C1231      C1232   1.402       .  A
C1231      C1236   1.410       .  A
C1232      C1233   1.398       .  A
C1232      H1241   1.084       .  S
C1233      C1234   1.410       .  A
C1233      H1242   1.082       .  S
C1234      C1237   1.492       .  S
C1234      C1235   1.402       .  A
C1235      C1236   1.401       .  A
C1235      H1243   1.083       .  S
C1236      H1244   1.081       .  S
C1237      H1245   1.087       .  S
C1237      C1238   1.344       .  D
C1238      H1246   1.086       .  S
C1239      H1247   1.087       .  S
C1239      C1240   1.346       .  D
C1240      H1248   1.085       .  S
C1249      C1257   1.485       .  S
C1249      C1250   1.403       .  A
C1249      C1254   1.406       .  A
C1250      C1251   1.405       .  A
C1250      H1259   1.083       .  S
C1251      C1252   1.410   1_565  A
C1251      H1260   1.082       .  S
C1252      C1255   1.481       .  S
C1252      C1253   1.399       .  A
C1253      C1254   1.391   1_545  A
C1253      H1261   1.084       .  S
C1254      H1262   1.083       .  S
C1255      H1263   1.088       .  S
C1255      C1256   1.343       .  D
C1256      H1264   1.086       .  S
C1257      H1265   1.086       .  S
C1257      C1258   1.343       .  D
C1258      H1266   1.088       .  S
C1267      C1275   1.483       .  S
C1267      C1268   1.404   1_545  A
C1267      C1272   1.405       .  A
C1268      C1269   1.400       .  A
C1268      H1277   1.083       .  S
C1269      C1270   1.405       .  A
C1269      H1278   1.083       .  S
C1270      C1273   1.481       .  S
C1270      C1271   1.403   1_565  A
C1271      C1272   1.399       .  A
C1271      H1279   1.083       .  S
C1272      H1280   1.083       .  S
C1273      H1281   1.087       .  S
C1273      C1274   1.346       .  D
C1274      H1282   1.086       .  S
C1275      H1283   1.087       .  S
C1275      C1276   1.345       .  D
C1276      H1284   1.086       .  S
C1285      C1293   1.485       .  S
C1285      C1286   1.408       .  A
C1285      C1290   1.401       .  A
C1286      C1287   1.398       .  A
C1286      H1295   1.081       .  S
C1287      C1288   1.409       .  A
C1287      H1296   1.079       .  S
C1288      C1291   1.488       .  S
C1288      C1289   1.404       .  A
C1289      C1290   1.396       .  A
C1289      H1297   1.083       .  S
C1290      H1298   1.083       .  S
C1291      H1299   1.087       .  S
C1291      C1292   1.348       .  D
C1292      H1300   1.082       .  S
C1293      H1301   1.087       .  S
C1293      C1294   1.345       .  D
C1294      H1302   1.084       .  S
C1303      C1311   1.492       .  S
C1303      C1304   1.406       .  A
C1303      C1308   1.407       .  A
C1304      C1305   1.404       .  A
C1304      H1313   1.083       .  S
C1305      C1306   1.407       .  A
C1305      H1314   1.082       .  S
C1306      C1309   1.488       .  S
C1306      C1307   1.403       .  A
C1307      C1308   1.397       .  A
C1307      H1315   1.083       .  S
C1308      H1316   1.082       .  S
C1309      H1317   1.087       .  S
C1309      C1310   1.349       .  D
C1310      H1318   1.085       .  S
C1311      H1319   1.087       .  S
C1311      C1312   1.348       .  D
C1312      H1320   1.085       .  S
C1321      C1329   1.487       .  S
C1321      C1322   1.404   1_455  A
C1321      C1326   1.406       .  A
C1322      C1323   1.404       .  A
C1322      H1331   1.083       .  S
C1323      C1324   1.410       .  A
C1323      H1332   1.081       .  S
C1324      C1327   1.488       .  S
C1324      C1325   1.403       .  A
C1325      C1326   1.395   1_655  A
C1325      H1333   1.083   1_655  S
C1326      H1334   1.083       .  S
C1327      H1335   1.087       .  S
C1327      C1328   1.346       .  D
C1328      H1336   1.085       .  S
C1329      H1337   1.086       .  S
C1329      C1330   1.345       .  D
C1330      H1338   1.087       .  S
C1339      C1347   1.488       .  S
C1339      C1340   1.408       .  A
C1339      C1344   1.403       .  A
C1340      C1341   1.406       .  A
C1340      H1349   1.081       .  S
C1341      C1342   1.412   1_655  A
C1341      H1350   1.081   1_655  S
C1342      C1345   1.491       .  S
C1342      C1343   1.402   1_455  A
C1343      C1344   1.393       .  A
C1343      H1351   1.083       .  S
C1344      H1352   1.084       .  S
C1345      H1353   1.087       .  S
C1345      C1346   1.347       .  D
C1346      H1354   1.084       .  S
C1347      H1355   1.087       .  S
C1347      C1348   1.351       .  D
C1348      H1356   1.085       .  S
C1357      C1365   1.486       .  S
C1357      C1358   1.405       .  A
C1357      C1362   1.405       .  A
C1358      C1359   1.402       .  A
C1358      H1367   1.083       .  S
C1359      C1360   1.405       .  A
C1359      H1368   1.083       .  S
C1360      C1363   1.484       .  S
C1360      C1361   1.405       .  A
C1361      C1362   1.399       .  A
C1361      H1369   1.083       .  S
C1362      H1370   1.083       .  S
C1363      H1371   1.087       .  S
C1363      C1364   1.349       .  D
C1364      H1372   1.085       .  S
C1365      H1373   1.087       .  S
C1365      C1366   1.345       .  D
C1366      H1374   1.086       .  S
C1375      C1383   1.492       .  S
C1375      C1376   1.405       .  A
C1375      C1380   1.407       .  A
C1376      C1377   1.406       .  A
C1376      H1385   1.083       .  S
C1377      C1378   1.410       .  A
C1377      H1386   1.082       .  S
C1378      C1381   1.490       .  S
C1378      C1379   1.402       .  A
C1379      C1380   1.395       .  A
C1379      H1387   1.084       .  S
C1380      H1388   1.083       .  S
C1381      H1389   1.087       .  S
C1381      C1382   1.347       .  D
C1382      H1390   1.085       .  S
C1383      H1391   1.086       .  S
C1383      C1384   1.346       .  D
C1384      H1392   1.087       .  S
C1393      C1401   1.493       .  S
C1393      C1394   1.405       .  A
C1393      C1398   1.410       .  A
C1394      C1395   1.398       .  A
C1394      H1403   1.083       .  S
C1395      C1396   1.403       .  A
C1395      H1404   1.084       .  S
C1396      C1399   1.489       .  S
C1396      C1397   1.408       .  A
C1397      C1398   1.401       .  A
C1397      H1405   1.081       .  S
C1398      H1406   1.080       .  S
C1399      H1407   1.087       .  S
C1399      C1400   1.349       .  D
C1400      H1408   1.085       .  S
C1401      H1409   1.087       .  S
C1401      C1402   1.349       .  D
C1402      H1410   1.083       .  S
C1411      C1419   1.494       .  S
C1411      C1412   1.404       .  A
C1411      C1416   1.410       .  A
C1412      C1413   1.401       .  A
C1412      H1421   1.083       .  S
C1413      C1414   1.409       .  A
C1413      H1422   1.081       .  S
C1414      C1417   1.490       .  S
C1414      C1415   1.402       .  A
C1415      C1416   1.399       .  A
C1415      H1423   1.084       .  S
C1416      H1424   1.081       .  S
C1417      H1425   1.087       .  S
C1417      C1418   1.346       .  D
C1418      H1426   1.085       .  S
C1419      H1427   1.087       .  S
C1419      C1420   1.346       .  D
C1420      H1428   1.084       .  S
C1429      C1437   1.485       .  S
C1429      C1430   1.404       .  A
C1429      C1434   1.406       .  A
C1430      C1431   1.400       .  A
C1430      H1439   1.083       .  S
C1431      C1432   1.405       .  A
C1431      H1440   1.084       .  S
C1432      C1435   1.484       .  S
C1432      C1433   1.404       .  A
C1433      C1434   1.402       .  A
C1433      H1441   1.083       .  S
C1434      H1442   1.083       .  S
C1435      H1443   1.087       .  S
C1435      C1436   1.344       .  D
C1436      H1444   1.087       .  S
C1437      H1445   1.087       .  S
C1437      C1438   1.346       .  D
C1438      H1446   1.086       .  S
C1447      C1455   1.489       .  S
C1447      C1448   1.402       .  A
C1447      C1452   1.409       .  A
C1448      C1449   1.395       .  A
C1448      H1457   1.083       .  S
C1449      C1450   1.403       .  A
C1449      H1458   1.084       .  S
C1450      C1453   1.490       .  S
C1450      C1451   1.409       .  A
C1451      C1452   1.400       .  A
C1451      H1459   1.079       .  S
C1452      H1460   1.080       .  S
C1453      H1461   1.087       .  S
C1453      C1454   1.347       .  D
C1454      H1462   1.083       .  S
C1455      H1463   1.087       .  S
C1455      C1456   1.346       .  D
C1456      H1464   1.083       .  S
C1465      C1473   1.491       .  S
C1465      C1466   1.403       .  A
C1465      C1470   1.409       .  A
C1466      C1467   1.396       .  A
C1466      H1475   1.084       .  S
C1467      C1468   1.409       .  A
C1467      H1476   1.080       .  S
C1468      C1471   1.494       .  S
C1468      C1469   1.406       .  A
C1469      C1470   1.403       .  A
C1469      H1477   1.083       .  S
C1470      H1478   1.081       .  S
C1471      H1479   1.087       .  S
C1471      C1472   1.348       .  D
C1472      H1480   1.084       .  S
C1473      H1481   1.087       .  S
C1473      C1474   1.349       .  D
C1474      H1482   1.084       .  S
C1483      C1491   1.493       .  S
C1483      C1484   1.404       .  A
C1483      C1488   1.410       .  A
C1484      C1485   1.399       .  A
C1484      H1493   1.084       .  S
C1485      C1486   1.410       .  A
C1485      H1494   1.079       .  S
C1486      C1489   1.492       .  S
C1486      C1487   1.403       .  A
C1487      C1488   1.397       .  A
C1487      H1495   1.084       .  S
C1488      H1496   1.079       .  S
C1489      H1497   1.087       .  S
C1489      C1490   1.347       .  D
C1490      H1498   1.082       .  S
C1491      H1499   1.087       .  S
C1491      C1492   1.346       .  D
C1492      H1500   1.082       .  S
C1501      C1509   1.484       .  S
C1501      C1502   1.403   1_565  A
C1501      C1506   1.409       .  A
C1502      C1503   1.393       .  A
C1502      H1511   1.084       .  S
C1503      C1504   1.404       .  A
C1503      H1512   1.083       .  S
C1504      C1507   1.480       .  S
C1504      C1505   1.402       .  A
C1505      C1506   1.401   1_545  A
C1505      H1513   1.083   1_545  S
C1506      H1514   1.081       .  S
C1507      H1515   1.086       .  S
C1507      C1508   1.343       .  D
C1508      H1516   1.087       .  S
C1509      H1517   1.088       .  S
C1509      C1510   1.346       .  D
C1510      H1518   1.084       .  S
C1519      C1527   1.478       .  S
C1519      C1520   1.403   1_545  A
C1519      C1524   1.405       .  A
C1520      C1521   1.399       .  A
C1520      H1529   1.083       .  S
C1521      C1522   1.405       .  A
C1521      H1530   1.083       .  S
C1522      C1525   1.475       .  S
C1522      C1523   1.401   1_565  A
C1523      C1524   1.395       .  A
C1523      H1531   1.084       .  S
C1524      H1532   1.083       .  S
C1525      H1533   1.088       .  S
C1525      C1526   1.343       .  D
C1526      H1534   1.086       .  S
C1527      H1535   1.087       .  S
C1527      C1528   1.342       .  D
C1528      H1536   1.087       .  S
C1537      C1545   1.487       .  S
C1537      C1538   1.408       .  A
C1537      C1542   1.403       .  A
C1538      C1539   1.401       .  A
C1538      H1547   1.081       .  S
C1539      C1540   1.409       .  A
C1539      H1548   1.080       .  S
C1540      C1543   1.487       .  S
C1540      C1541   1.403       .  A
C1541      C1542   1.395       .  A
C1541      H1549   1.084       .  S
C1542      H1550   1.083       .  S
C1543      H1551   1.087       .  S
C1543      C1544   1.348       .  D
C1544      H1552   1.084       .  S
C1545      H1553   1.087       .  S
C1545      C1546   1.348       .  D
C1546      H1554   1.084       .  S
C1555      C1563   1.488       .  S
C1555      C1556   1.408       .  A
C1555      C1560   1.402       .  A
C1556      C1557   1.400       .  A
C1556      H1565   1.081       .  S
C1557      C1558   1.408       .  A
C1557      H1566   1.080       .  S
C1558      C1561   1.489       .  S
C1558      C1559   1.405       .  A
C1559      C1560   1.397       .  A
C1559      H1567   1.083       .  S
C1560      H1568   1.084       .  S
C1561      H1569   1.087       .  S
C1561      C1562   1.350       .  D
C1562      H1570   1.083       .  S
C1563      H1571   1.087       .  S
C1563      C1564   1.347       .  D
C1564      H1572   1.085       .  S
C1573      C1581   1.488       .  S
C1573      C1574   1.403       .  A
C1573      C1578   1.406       .  A
C1574      C1575   1.402       .  A
C1574      H1583   1.083       .  S
C1575      C1576   1.410       .  A
C1575      H1584   1.080       .  S
C1576      C1579   1.492       .  S
C1576      C1577   1.405       .  A
C1577      C1578   1.397       .  A
C1577      H1585   1.083       .  S
C1578      H1586   1.082       .  S
C1579      H1587   1.087       .  S
C1579      C1580   1.349       .  D
C1580      H1588   1.083       .  S
C1581      H1589   1.087       .  S
C1581      C1582   1.346       .  D
C1582      H1590   1.086       .  S
C1591      C1599   1.488       .  S
C1591      C1592   1.403       .  A
C1591      C1596   1.407       .  A
C1592      C1593   1.402       .  A
C1592      H1601   1.083       .  S
C1593      C1594   1.409       .  A
C1593      H1602   1.081       .  S
C1594      C1597   1.487       .  S
C1594      C1595   1.402       .  A
C1595      C1596   1.395       .  A
C1595      H1603   1.083       .  S
C1596      H1604   1.082       .  S
C1597      H1605   1.087       .  S
C1597      C1598   1.347       .  D
C1598      H1606   1.085       .  S
C1599      H1607   1.086       .  S
C1599      C1600   1.345       .  D
C1600      H1608   1.086       .  S
C1609      C1617   1.478       .  S
C1609      C1610   1.403   1_455  A
C1609      C1614   1.405       .  A
C1610      C1611   1.397       .  A
C1610      H1619   1.083       .  S
C1611      C1612   1.404       .  A
C1611      H1620   1.083       .  S
C1612      C1615   1.477       .  S
C1612      C1613   1.402       .  A
C1613      C1614   1.398   1_655  A
C1613      H1621   1.083   1_655  S
C1614      H1622   1.083       .  S
C1615      H1623   1.087       .  S
C1615      C1616   1.343       .  D
C1616      H1624   1.086       .  S
C1617      H1625   1.087       .  S
C1617      C1618   1.345       .  D
C1618      H1626   1.086       .  S
C1627      C1635   1.484       .  S
C1627      C1628   1.404       .  A
C1627      C1632   1.405       .  A
C1628      C1629   1.400   1_655  A
C1628      H1637   1.083   1_655  S
C1629      C1630   1.405       .  A
C1629      H1638   1.083       .  S
C1630      C1633   1.485       .  S
C1630      C1631   1.405   1_455  A
C1631      C1632   1.400       .  A
C1631      H1639   1.083       .  S
C1632      H1640   1.083       .  S
C1633      H1641   1.087       .  S
C1633      C1634   1.348       .  D
C1634      H1642   1.085       .  S
C1635      H1643   1.087       .  S
C1635      C1636   1.347       .  D
C1636      H1644   1.086       .  S
C1645      C1653   1.479       .  S
C1645      C1646   1.404       .  A
C1645      C1650   1.405       .  A
C1646      C1647   1.400       .  A
C1646      H1655   1.083       .  S
C1647      C1648   1.404       .  A
C1647      H1656   1.083       .  S
C1648      C1651   1.474       .  S
C1648      C1649   1.401       .  A
C1649      C1650   1.395       .  A
C1649      H1657   1.083       .  S
C1650      H1658   1.083       .  S
C1651      H1659   1.087       .  S
C1651      C1652   1.344       .  D
C1652      H1660   1.086       .  S
C1653      H1661   1.087       .  S
C1653      C1654   1.345       .  D
C1654      H1662   1.086       .  S
C1663      C1671   1.475       .  S
C1663      C1664   1.401       .  A
C1663      C1668   1.405       .  A
C1664      C1665   1.395       .  A
C1664      H1673   1.083       .  S
C1665      C1666   1.404       .  A
C1665      H1674   1.083       .  S
C1666      C1669   1.477       .  S
C1666      C1667   1.404       .  A
C1667      C1668   1.400       .  A
C1667      H1675   1.083       .  S
C1668      H1676   1.083       .  S
C1669      H1677   1.087       .  S
C1669      C1670   1.343       .  D
C1670      H1678   1.086       .  S
C1671      H1679   1.088       .  S
C1671      C1672   1.344       .  D
C1672      H1680   1.086       .  S
C1681      C1689   1.492       .  S
C1681      C1682   1.406       .  A
C1681      C1686   1.404       .  A
C1682      C1683   1.398       .  A
C1682      H1691   1.081       .  S
C1683      C1684   1.411       .  A
C1683      H1692   1.078       .  S
C1684      C1687   1.498       .  S
C1684      C1685   1.406       .  A
C1685      C1686   1.402       .  A
C1685      H1693   1.084       .  S
C1686      H1694   1.083       .  S
C1687      H1695   1.087       .  S
C1687      C1688   1.348       .  D
C1688      H1696   1.082       .  S
C1689      H1697   1.087       .  S
C1689      C1690   1.350       .  D
C1690      H1698   1.084       .  S
C1699      C1707   1.491       .  S
C1699      C1700   1.410       .  A
C1699      C1704   1.402       .  A
C1700      C1701   1.402       .  A
C1700      H1709   1.080       .  S
C1701      C1702   1.408       .  A
C1701      H1710   1.081       .  S
C1702      C1705   1.491       .  S
C1702      C1703   1.405       .  A
C1703      C1704   1.397       .  A
C1703      H1711   1.083       .  S
C1704      H1712   1.084       .  S
C1705      H1713   1.087       .  S
C1705      C1706   1.351       .  D
C1706      H1714   1.083       .  S
C1707      H1715   1.088       .  S
C1707      C1708   1.347       .  D
C1708      H1716   1.085       .  S
C1717      C1725   1.486       .  S
C1717      C1718   1.405       .  A
C1717      C1722   1.406       .  A
C1718      C1719   1.401       .  A
C1718      H1727   1.083       .  S
C1719      C1720   1.405       .  A
C1719      H1728   1.083       .  S
C1720      C1723   1.482       .  S
C1720      C1721   1.403       .  A
C1721      C1722   1.399       .  A
C1721      H1729   1.083       .  S
C1722      H1730   1.083       .  S
C1723      H1731   1.088       .  S
C1723      C1724   1.345       .  D
C1724      H1732   1.086       .  S
C1725      H1733   1.087       .  S
C1725      C1726   1.347       .  D
C1726      H1734   1.086       .  S
C1735      C1743   1.483       .  S
C1735      C1736   1.403       .  A
C1735      C1740   1.404       .  A
C1736      C1737   1.404       .  A
C1736      H1745   1.083       .  S
C1737      C1738   1.410       .  A
C1737      H1746   1.081       .  S
C1738      C1741   1.485       .  S
C1738      C1739   1.402       .  A
C1739      C1740   1.391       .  A
C1739      H1747   1.084       .  S
C1740      H1748   1.083       .  S
C1741      H1749   1.088       .  S
C1741      C1742   1.346       .  D
C1742      H1750   1.084       .  S
C1743      H1751   1.086       .  S
C1743      C1744   1.344       .  D
C1744      H1752   1.087       .  S
C1753      C1761   1.492       .  S
C1753      C1754   1.404       .  A
C1753      C1758   1.409       .  A
C1754      C1755   1.402       .  A
C1754      H1763   1.083       .  S
C1755      C1756   1.409       .  A
C1755      H1764   1.082       .  S
C1756      C1759   1.490       .  S
C1756      C1757   1.402       .  A
C1757      C1758   1.397       .  A
C1757      H1765   1.083       .  S
C1758      H1766   1.082       .  S
C1759      H1767   1.087       .  S
C1759      C1760   1.345       .  D
C1760      H1768   1.085       .  S
C1761      H1769   1.087       .  S
C1761      C1762   1.345       .  D
C1762      H1770   1.085       .  S
C1771      C1779   1.483       .  S
C1771      C1772   1.403       .  A
C1771      C1776   1.409       .  A
C1772      C1773   1.396       .  A
C1772      H1781   1.083       .  S
C1773      C1774   1.406       .  A
C1773      H1782   1.082       .  S
C1774      C1777   1.478       .  S
C1774      C1775   1.400       .  A
C1775      C1776   1.395       .  A
C1775      H1783   1.083       .  S
C1776      H1784   1.081       .  S
C1777      H1785   1.087       .  S
C1777      C1778   1.343       .  D
C1778      H1786   1.086       .  S
C1779      H1787   1.087       .  S
C1779      C1780   1.343       .  D
C1780      H1788   1.084       .  S
C1789      C1797   1.491       .  S
C1789      C1790   1.402       .  A
C1789      C1794   1.411       .  A
C1790      C1791   1.399       .  A
C1790      H1799   1.083       .  S
C1791      C1792   1.410       .  A
C1791      H1800   1.081       .  S
C1792      C1795   1.489       .  S
C1792      C1793   1.401       .  A
C1793      C1794   1.397       .  A
C1793      H1801   1.083       .  S
C1794      H1802   1.080       .  S
C1795      H1803   1.087       .  S
C1795      C1796   1.344       .  D
C1796      H1804   1.084       .  S
C1797      H1805   1.087       .  S
C1797      C1798   1.343       .  D
C1798      H1806   1.084       .  S
C1807      C1815   1.493       .  S
C1807      C1808   1.402       .  A
C1807      C1812   1.412       .  A
C1808      C1809   1.395       .  A
C1808      H1817   1.084       .  S
C1809      C1810   1.408       .  A
C1809      H1818   1.081       .  S
C1810      C1813   1.490       .  S
C1810      C1811   1.402       .  A
C1811      C1812   1.402       .  A
C1811      H1819   1.083       .  S
C1812      H1820   1.079       .  S
C1813      H1821   1.087       .  S
C1813      C1814   1.344       .  D
C1814      H1822   1.085       .  S
C1815      H1823   1.087       .  S
C1815      C1816   1.345       .  D
C1816      H1824   1.082       .  S
