geometry optimzed in LAMMPS
_audit_creation_date              2020-11-30 
_audit_creation_method            'lammps2cif' 
_symmetry_space_group_name_H-M    'P1' 
_symmetry_Int_Tables_number       1 
_symmetry_cell_setting            triclinic 
loop_ 
_symmetry_equiv_pos_as_xyz 
  x,y,z 
_cell_length_a                    24.17410465 
_cell_length_b                    24.760793021254674 
_cell_length_c                    24.441772040195673 
_cell_angle_alpha                 89.9385989298752 
_cell_angle_beta                  90.35054048199882 
_cell_angle_gamma                 89.76094895420935 
loop_ 
_atom_site_label 
_atom_site_type_symbol 
_atom_site_fract_x 
_atom_site_fract_y 
_atom_site_fract_z 
_atom_site_charge 
O1          O  0.43227193  0.71859968  0.92952024    -0.71700
O2          O  0.55697793  0.62343227  0.94935615    -0.71900
O3          O  0.44643159  0.61389379  0.94948433    -0.71800
O4          O  0.54502462  0.73065172  0.92953440    -0.71800
O5          O  0.54218029  0.74740183  0.01667910    -0.71800
O6          O  0.44721109  0.62709921  0.03744939    -0.71800
O7          O  0.55705985  0.64026590  0.03652260    -0.71700
O8          O  0.43065759  0.73095081  0.01743224    -0.71900
V9          V  0.49552173  0.67224212  0.94111048     1.35200
V10         V  0.49466093  0.68663284  0.02521134     1.35200
C11         C  0.40752833  0.73697512  0.97114573     0.77500
C12         C  0.57656028  0.61381973  0.99665781     0.77600
C13         C  0.42926059  0.60148609  0.99652015     0.77500
C14         C  0.56098693  0.75868395  0.96979018     0.77400
C15         C  0.85387752  0.68423506  0.99281182     0.86600
C16         C  0.87986376  0.69905630  0.93962106    -0.53700
C17         C  0.90092585  0.75041575  0.93699148     0.09500
C18         C  0.88669857  0.78497653  0.98974131     0.20400
C19         C  0.89816365  0.69765114  0.03463165    -0.54400
C20         C  0.91123583  0.75202341  0.03881187     0.09600
C21         C  0.80813676  0.72538749  0.00078825    -0.53900
C22         C  0.82295154  0.77879565  0.99724257     0.10200
H23         H  0.88702400  0.66751273  0.90985138     0.14700
H24         H  0.90133435  0.82734864  0.98793499     0.00400
H25         H  0.91128502  0.66735264  0.06423977     0.15000
H26         H  0.76714283  0.71092375  0.00985322     0.14800
C27         C  0.68199947  0.85293765  0.00381418     0.86600
C28         C  0.69730328  0.88098131  0.05578562    -0.53700
C29         C  0.75038756  0.90049379  0.05840936     0.09500
C30         C  0.78540924  0.88503320  0.00620238     0.20400
C31         C  0.69581079  0.89389136  0.96003175    -0.54400
C32         C  0.75122320  0.90795140  0.95676123     0.09600
C33         C  0.72406538  0.80799665  0.99786969    -0.53900
C34         C  0.77873150  0.82244100  0.00052967     0.10200
H35         H  0.66515123  0.88927909  0.08527942     0.14700
H36         H  0.82889492  0.89916188  0.00750473     0.00400
H37         H  0.66461687  0.90599460  0.93022058     0.15000
H38         H  0.70919978  0.76761569  0.99047293     0.14800
O39         O  0.72870414  0.43704082  0.08155273    -0.71700
O40         O  0.62898637  0.55423201  0.05419130    -0.71900
O41         O  0.62102625  0.44508221  0.05985635    -0.71800
O42         O  0.73795633  0.54663107  0.07491512    -0.71800
O43         O  0.75290905  0.54167237  0.98753295    -0.71800
O44         O  0.63778455  0.43846340  0.97284600    -0.71800
O45         O  0.64320630  0.54745951  0.96684341    -0.71700
O46         O  0.74642275  0.43252862  0.99464472    -0.71900
V47         V  0.67954039  0.49576551  0.06589948     1.35200
V48         V  0.69491590  0.49020970  0.98216945     1.35200
C49         C  0.75340997  0.41393928  0.04259246     0.77500
C50         C  0.61854689  0.57060272  0.00609733     0.77600
C51         C  0.61071638  0.42336236  0.01408663     0.77500
C52         C  0.76437905  0.56255623  0.03340485     0.77400
C53         C  0.69449241  0.13584257  0.95933918     0.86600
C54         C  0.70524925  0.09777022  0.91342711    -0.53700
C55         C  0.75137959  0.06587306  0.92065185     0.09500
C56         C  0.78408577  0.07883059  0.97664954     0.20400
C57         C  0.69366132  0.09953559  0.01026507    -0.54400
C58         C  0.74044375  0.06930040  0.02096878     0.09600
C59         C  0.74703134  0.16870725  0.96037206    -0.53900
C60         C  0.79348265  0.14210877  0.97925793     0.10200
H61         H  0.67681523  0.09617971  0.87922136     0.14700
H62         H  0.82247027  0.05495041  0.98300789     0.00400
H63         H  0.65625856  0.09845115  0.03403256     0.15000
H64         H  0.74431731  0.21251692  0.95783360     0.14800
C65         C  0.81393793  0.26896075  0.04810026     0.86600
C66         C  0.86011173  0.26323984  0.08834558    -0.53700
C67         C  0.90210289  0.22919283  0.07264703     0.09500
C68         C  0.88631137  0.19589597  0.01917395     0.20400
C69         C  0.84061771  0.27690936  0.99119849    -0.54400
C70         C  0.88037304  0.24004508  0.97641460     0.09600
C71         C  0.79132132  0.21214084  0.04955212    -0.53900
C72         C  0.82462849  0.17385468  0.02449347     0.10200
H73         H  0.86221554  0.28971127  0.12375484     0.14700
H74         H  0.91685462  0.16400233  0.00901454     0.00400
H75         H  0.82906892  0.31146837  0.96663701     0.15000
H76         H  0.74758912  0.20584380  0.05714994     0.14800
O77         O  0.55728141  0.25483550  0.95790889    -0.71700
O78         O  0.44101658  0.35782157  0.96198406    -0.71900
O79         O  0.55209801  0.36327286  0.96400365    -0.71800
O80         O  0.44626137  0.24950319  0.95796219    -0.71800
O81         O  0.44422443  0.24769006  0.04688176    -0.71800
O82         O  0.55165576  0.35831136  0.05280385    -0.71800
O83         O  0.44121174  0.35551300  0.05091178    -0.71700
O84         O  0.55667305  0.25021844  0.04670544    -0.71900
V85         V  0.49907891  0.30625914  0.96220118     1.35200
V86         V  0.49853897  0.30270764  0.04759026     1.35200
C87         C  0.57744379  0.23563185  0.00148368     0.77500
C88         C  0.42180989  0.37466800  0.00675290     0.77600
C89         C  0.56958805  0.38017473  0.00985090     0.77500
C90         C  0.42635825  0.23038107  0.00161881     0.77400
C91         C  0.16111855  0.28532702  0.99024655     0.86600
C92         C  0.10904759  0.29571075  0.95946915    -0.53700
C93         C  0.07050071  0.25559012  0.96267373     0.09500
C94         C  0.08973633  0.20816009  0.00326769     0.20400
C95         C  0.14379465  0.27505308  0.04977282    -0.54400
C96         C  0.10190907  0.23839673  0.05692032     0.09600
C97         C  0.17928645  0.23150973  0.96612163    -0.53900
C98         C  0.14967064  0.18764818  0.98532129     0.10200
H99         H  0.10643761  0.33157757  0.93446225     0.14700
H100        H  0.05924784  0.17514448  0.00781160     0.00400
H101        H  0.16178343  0.29826402  0.08292673     0.15000
H102        H  0.22096020  0.22825259  0.95041887     0.14800
C103        C  0.28690166  0.15693442  0.01743675     0.86600
C104        C  0.29620239  0.10543663  0.04741250    -0.53700
C105        C  0.25421829  0.06875047  0.04243574     0.09500
C106        C  0.20648246  0.08937266  0.00158128     0.20400
C107        C  0.27689120  0.14041892  0.95711246    -0.54400
C108        C  0.23865074  0.10009629  0.94885135     0.09600
C109        C  0.23209171  0.17519892  0.04139275    -0.53900
C110        C  0.18699831  0.14845907  0.02001989     0.10200
H111        H  0.33293132  0.10129018  0.07227930     0.14700
H112        H  0.17174865  0.06076819  0.99586755     0.00400
H113        H  0.30277792  0.15584209  0.92459187     0.15000
H114        H  0.22951442  0.21537487  0.05867895     0.14800
C115        C  0.14375662  0.69370516  0.04169718     0.86600
C116        C  0.10403389  0.70462993  0.08670051    -0.53700
C117        C  0.06980977  0.74791274  0.07745408     0.09500
C118        C  0.08364084  0.77980258  0.02244292     0.20400
C119        C  0.10752473  0.69171329  0.98953627    -0.54400
C120        C  0.07569437  0.73689414  0.97828021     0.09600
C121        C  0.17655901  0.74553914  0.04035908    -0.53900
C122        C  0.14814361  0.79008863  0.02113058     0.10200
H123        H  0.10236589  0.67834918  0.12210745     0.14700
H124        H  0.05843258  0.81674619  0.01570927     0.00400
H125        H  0.10786089  0.65542883  0.96524070     0.15000
H126        H  0.22146999  0.74399333  0.04334706     0.14800
C127        C  0.27332098  0.82162181  0.94074232     0.86600
C128        C  0.25199926  0.86021299  0.89758218    -0.53700
C129        C  0.21823593  0.90037841  0.91809427     0.09500
C130        C  0.19281059  0.88332521  0.97556430     0.20400
C131        C  0.28560601  0.85582113  0.99267362    -0.54400
C132        C  0.24280880  0.88623061  0.01257749     0.09600
C133        C  0.22105828  0.79107724  0.95153562    -0.53900
C134        C  0.17914710  0.82062415  0.97584692     0.10200
H135        H  0.27385540  0.86410229  0.85899949     0.14700
H136        H  0.15772036  0.90914847  0.98867880     0.00400
H137        H  0.32677369  0.85675615  0.01036417     0.15000
H138        H  0.22081354  0.74732205  0.94793444     0.14800
O139        O  0.24979174  0.44057828  0.96403677    -0.71700
O140        O  0.36520558  0.54188105  0.95884106    -0.71900
O141        O  0.35964851  0.43477640  0.96233147    -0.71800
O142        O  0.25578295  0.55058790  0.96241047    -0.71800
O143        O  0.25842661  0.55270530  0.05126808    -0.71800
O144        O  0.36195456  0.43662728  0.05125798    -0.71800
O145        O  0.36898153  0.54492597  0.04772545    -0.71700
O146        O  0.25100986  0.44336791  0.05297617    -0.71900
V147        V  0.30727106  0.49202338  0.96373922     1.35200
V148        V  0.30984021  0.49423986  0.04917769     1.35200
C149        C  0.23218851  0.42318761  0.00910676     0.77500
C150        C  0.38673061  0.56056885  0.00176209     0.77600
C151        C  0.37907041  0.41669676  0.00689884     0.77500
C152        C  0.24142228  0.57296013  0.00676256     0.77400
O153        O  0.45515647  0.00576416  0.75347749    -0.71700
O154        O  0.55657462  0.02403945  0.63786441    -0.71900
O155        O  0.44609615  0.02878401  0.64525604    -0.71800
O156        O  0.56605423  0.99931948  0.74451612    -0.71800
O157        O  0.56053542  0.91380434  0.72562203    -0.71800
O158        O  0.44014679  0.94310166  0.62750868    -0.71800
O159        O  0.55103004  0.93831130  0.61944106    -0.71700
O160        O  0.44865959  0.92014282  0.73533760    -0.71900
V161        V  0.50570136  0.01274480  0.69511941     1.35200
V162        V  0.50007665  0.93048257  0.67743995     1.35200
C163        C  0.43410763  0.96034381  0.76384315     0.77500
C164        C  0.57154351  0.98420645  0.60954622     0.77600
C165        C  0.42368172  0.99086182  0.61823081     0.77500
C166        C  0.58455588  0.95167508  0.75087400     0.77400
C167        C  0.86005914  0.04290526  0.69645177     0.86600
C168        C  0.89841586  0.08870562  0.70697848    -0.53700
C169        C  0.93241695  0.08131432  0.75148855     0.09500
C170        C  0.92136303  0.02535297  0.78306169     0.20400
C171        C  0.89809601  0.99312665  0.69361970    -0.54400
C172        C  0.93010798  0.98202912  0.73901338     0.09600
C173        C  0.82795746  0.04037977  0.74949536    -0.53900
C174        C  0.85724733  0.02162123  0.79436717     0.10200
H175        H  0.89859228  0.12324372  0.67989113     0.14700
H176        H  0.94713509  0.01884576  0.82014645     0.00400
H177        H  0.89820893  0.96965013  0.65639644     0.15000
H178        H  0.78297849  0.04145645  0.74808260     0.14800
C179        C  0.73184381  0.94810114  0.81441460     0.86600
C180        C  0.74004193  0.90713174  0.85856221    -0.53700
C181        C  0.77376271  0.92346548  0.90083531     0.09500
C182        C  0.80599920  0.97767460  0.88634086     0.20400
C183        C  0.72143608  0.00323798  0.84326333    -0.54400
C184        C  0.75938867  0.01841804  0.88258837     0.09600
C185        C  0.78970957  0.94930103  0.79169918    -0.53900
C186        C  0.82786801  0.97500095  0.82479784     0.10200
H187        H  0.71404667  0.87142553  0.86009455     0.14700
H188        H  0.83869747  0.98799631  0.91651393     0.00400
H189        H  0.68473405  0.02628079  0.83325038     0.15000
H190        H  0.79611996  0.94293955  0.74821670     0.14800
O191        O  0.75197119  0.95520555  0.44736428    -0.71700
O192        O  0.63599524  0.94798350  0.54891337    -0.71900
O193        O  0.64212104  0.95034046  0.44008532    -0.71800
O194        O  0.74551491  0.95586649  0.55841578    -0.71800
O195        O  0.74099526  0.04354734  0.55764895    -0.71800
O196        O  0.63660767  0.03800080  0.44157918    -0.71800
O197        O  0.63060136  0.03564270  0.55165529    -0.71700
O198        O  0.74731198  0.04295691  0.44744113    -0.71900
V199        V  0.69410651  0.95413311  0.49875224     1.35200
V200        V  0.68901740  0.03839362  0.49946452     1.35200
C201        C  0.76820628  0.99978295  0.42877612     0.77500
C202        C  0.61390815  0.98991783  0.56792860     0.77600
C203        C  0.62147447  0.99363435  0.42121523     0.77500
C204        C  0.75960742  0.00081232  0.57905799     0.77400
C205        C  0.14508810  0.99865792  0.68333869     0.86600
C206        C  0.12039850  0.94544075  0.69821514    -0.53700
C207        C  0.10004904  0.94209583  0.75035580     0.09500
C208        C  0.11258128  0.99460256  0.78516250     0.20400
C209        C  0.09984007  0.03874039  0.69667297    -0.54400
C210        C  0.08691259  0.04242536  0.75161104     0.09600
C211        C  0.19085214  0.00764777  0.72517054    -0.53900
C212        C  0.17595447  0.00353565  0.77915898     0.10200
H213        H  0.11410937  0.91563184  0.66644811     0.14700
H214        H  0.09786552  0.99243282  0.82800543     0.00400
H215        H  0.08594571  0.06772827  0.66604894     0.15000
H216        H  0.23191477  0.01709315  0.71097711     0.14800
C217        C  0.31579576  0.00233840  0.85671337     0.86600
C218        C  0.30329549  0.05302163  0.88733524    -0.53700
C219        C  0.25002163  0.05746543  0.90601421     0.09500
C220        C  0.21223549  0.00827875  0.88710497     0.20400
C221        C  0.29892828  0.95834764  0.89581162    -0.54400
C222        C  0.24307503  0.95633588  0.90783943     0.09600
C223        C  0.27443246  0.00125674  0.80992236    -0.53900
C224        C  0.21974527  0.00538717  0.82375031     0.10200
H225        H  0.33682006  0.08006643  0.89782170     0.14700
H226        H  0.16863243  0.01100562  0.90075949     0.00400
H227        H  0.32846124  0.92697788  0.90703497     0.15000
H228        H  0.28954055  0.99548465  0.76885785     0.14800
O229        O  0.24631825  0.98955193  0.54324385    -0.71700
O230        O  0.36202092  0.96609131  0.44231969    -0.71900
O231        O  0.35477135  0.96402995  0.55218695    -0.71800
O232        O  0.25471246  0.99302307  0.43330929    -0.71800
O233        O  0.27689941  0.07790658  0.43580871    -0.71800
O234        O  0.37349641  0.04956029  0.55728411    -0.71800
O235        O  0.38326717  0.05121886  0.44727901    -0.71700
O236        O  0.26546587  0.07512605  0.54649173    -0.71900
V237        V  0.30471024  0.97986548  0.49296271     1.35200
V238        V  0.32434510  0.06178947  0.49674354     1.35200
C239        C  0.23645425  0.03587744  0.56258982     0.77500
C240        C  0.39155014  0.00496809  0.42691707     0.77600
C241        C  0.38165172  0.00199443  0.57474468     0.77500
C242        C  0.24997844  0.04017603  0.41338889     0.77400
C243        C  0.30140521  0.95122820  0.13952350     0.86600
C244        C  0.29142765  0.90834202  0.09804241    -0.53700
C245        C  0.24756995  0.91889313  0.06377688     0.09500
C246        C  0.21484056  0.97289314  0.07863630     0.20400
C247        C  0.30457830  0.00368774  0.10568003    -0.54400
C248        C  0.25903106  0.01636011  0.07399291     0.09600
C249        C  0.24719521  0.95133827  0.17043379    -0.53900
C250        C  0.20258400  0.97228288  0.14185244     0.10200
H251        H  0.31838437  0.87337095  0.09549115     0.14700
H252        H  0.17773500  0.98079016  0.05294261     0.00400
H253        H  0.34194694  0.02716191  0.10740153     0.15000
H254        H  0.24781446  0.94799887  0.21480947     0.14800
C255        C  0.18568064  0.04446564  0.26772466     0.86600
C256        C  0.14067342  0.08514662  0.26042207    -0.53700
C257        C  0.09756069  0.06889228  0.22750978     0.09500
C258        C  0.11180305  0.01467685  0.19540540     0.20400
C259        C  0.15749688  0.98915224  0.27804880    -0.54400
C260        C  0.11786711  0.97330493  0.24081511     0.09600
C261        C  0.20770859  0.04330887  0.21011596    -0.53900
C262        C  0.17317352  0.01831754  0.17261503     0.10200
H263        H  0.13965148  0.12111474  0.28590649     0.14700
H264        H  0.08079659  0.00411348  0.16359867     0.00400
H265        H  0.16899899  0.96591386  0.31370043     0.15000
H266        H  0.25156270  0.04924109  0.20307337     0.14800
C267        C  0.71403533  0.00641123  0.16124838     0.86600
C268        C  0.70370600  0.03666733  0.10957642    -0.53700
C269        C  0.74584719  0.03468911  0.07231924     0.09500
C270        C  0.79441453  0.99480762  0.09225014     0.20400
C271        C  0.72613084  0.94770217  0.14402271    -0.54400
C272        C  0.76346883  0.94150074  0.10233689     0.09600
C273        C  0.76809444  0.03146572  0.18028922    -0.53900
C274        C  0.81370403  0.01224556  0.15261494     0.10200
H275        H  0.66611097  0.06008398  0.10634174     0.14700
H276        H  0.82917458  0.99069271  0.06311223     0.00400
H277        H  0.70213033  0.91441094  0.16015276     0.15000
H278        H  0.77036174  0.04752421  0.22147996     0.14800
C279        C  0.84190934  0.98075580  0.29073903     0.86600
C280        C  0.89430791  0.95040826  0.30001980    -0.53700
C281        C  0.93208463  0.95435827  0.25870702     0.09500
C282        C  0.91203942  0.99566578  0.21191985     0.20400
C283        C  0.85869866  0.03985709  0.28126674    -0.54400
C284        C  0.89991297  0.04800346  0.24387823     0.09600
C285        C  0.82315607  0.95784604  0.23598271    -0.53900
C286        C  0.85191672  0.97790441  0.19151356     0.10200
H287        H  0.89750462  0.92470123  0.33559458     0.14700
H288        H  0.94205075  0.00106630  0.17823672     0.00400
H289        H  0.84099932  0.07218385  0.30548471     0.15000
H290        H  0.78163218  0.94184119  0.23298013     0.14800
O291        O  0.44210002  0.94440237  0.25815356    -0.71700
O292        O  0.55937006  0.94842111  0.36190337    -0.71900
O293        O  0.44838473  0.95222502  0.36754230    -0.71800
O294        O  0.55379727  0.94322041  0.25214794    -0.71800
O295        O  0.55544616  0.03096041  0.24813495    -0.71800
O296        O  0.45172503  0.03981124  0.36175662    -0.71800
O297        O  0.56131643  0.03608289  0.35698934    -0.71700
O298        O  0.44304329  0.03206312  0.25349841    -0.71900
V299        V  0.50107010  0.94868455  0.30969214     1.35200
V300        V  0.50283119  0.03292009  0.30478251     1.35200
C301        C  0.42111353  0.98756067  0.23991361     0.77500
C302        C  0.57947014  0.99266325  0.37788299     0.77600
C303        C  0.43258296  0.99822920  0.38412904     0.77500
C304        C  0.57371339  0.98606477  0.23203991     0.77400
O305        O  0.95500837  0.44315239  0.74200424    -0.71700
O306        O  0.95995894  0.55569513  0.63632286    -0.71900
O307        O  0.96421629  0.44654160  0.63282025    -0.71800
O308        O  0.95268285  0.55258656  0.74549697    -0.71800
O309        O  0.04240317  0.55496326  0.75151644    -0.71800
O310        O  0.05384499  0.45015831  0.63933935    -0.71800
O311        O  0.04961205  0.55839819  0.64313414    -0.71700
O312        O  0.04469003  0.44452293  0.74809634    -0.71900
V313        V  0.95968600  0.49959249  0.68931706     1.35200
V314        V  0.04583720  0.50187505  0.69571103     1.35200
C315        C  0.99905556  0.42325609  0.76152249     0.77500
C316        C  0.00530408  0.57650824  0.62218557     0.77600
C317        C  0.01132983  0.43019907  0.61729623     0.77500
C318        C  0.99593418  0.57319216  0.76601299     0.77400
C319        C  0.99106772  0.84177569  0.71167941     0.86600
C320        C  0.96134150  0.89366778  0.70161124    -0.53700
C321        C  0.96395112  0.93015881  0.74381483     0.09500
C322        C  0.00374894  0.90905986  0.79216241     0.20400
C323        C  0.05156683  0.85771183  0.72422773    -0.54400
C324        C  0.05825044  0.89844540  0.76197969     0.09600
C325        C  0.96466323  0.82347069  0.76483569    -0.53900
C326        C  0.98480373  0.84973663  0.81037278     0.10200
H327        H  0.93808125  0.89800184  0.66395806     0.14700
H328        H  0.00816192  0.93743646  0.82698002     0.00400
H329        H  0.08549577  0.84171754  0.70025879     0.15000
H330        H  0.94708393  0.78330933  0.76658629     0.14800
C331        C  0.01277733  0.71213862  0.83701494     0.86600
C332        C  0.04313997  0.70154801  0.88911789    -0.53700
C333        C  0.04065756  0.74230341  0.92674842     0.09500
C334        C  0.00015262  0.79010790  0.90714747     0.20400
C335        C  0.95247983  0.72373429  0.85344533    -0.54400
C336        C  0.94555387  0.76043625  0.89513685     0.09600
C337        C  0.03807460  0.76551407  0.81910315    -0.53900
C338        C  0.01888531  0.80996193  0.84787604     0.10200
H339        H  0.06695865  0.66480472  0.89274364     0.14700
H340        H  0.99567440  0.82354637  0.93696659     0.00400
H341        H  0.91870930  0.70035398  0.83635121     0.15000
H342        H  0.05456755  0.76822916  0.77808296     0.14800
O343        O  0.05542385  0.73767902  0.44558264    -0.71700
O344        O  0.05179777  0.63716969  0.56318160    -0.71900
O345        O  0.04954104  0.62943531  0.45391070    -0.71800
O346        O  0.05606064  0.74597967  0.55568244    -0.76600
O347        O  0.96618091  0.74776944  0.55831105    -0.71800
O348        O  0.95976503  0.63544823  0.45429926    -0.71800
O349        O  0.96188591  0.63971709  0.56259966    -0.71700
O350        O  0.96567393  0.74283752  0.44724604    -0.71900
V351        V  0.05153606  0.68780638  0.50476009     1.35200
V352        V  0.96520476  0.69175532  0.50559937     1.35200
C353        C  0.01103421  0.75622790  0.42544320     0.77500
C354        C  0.00638276  0.61987878  0.58139025     0.77600
C355        C  0.00300217  0.61263895  0.43727357     0.77500
C356        C  0.01197044  0.76554353  0.57531236     0.77400
C357        C  0.94585396  0.72022698  0.17597347     0.86600
C358        C  0.90246295  0.73971239  0.13604391    -0.53700
C359        C  0.92243120  0.77388065  0.09629672     0.09500
C360        C  0.97983580  0.79987257  0.11413480     0.20400
C361        C  0.99903690  0.70958258  0.14219373    -0.54400
C362        C  0.01840204  0.75183027  0.11138479     0.09600
C363        C  0.95544431  0.77168965  0.20720021    -0.53900
C364        C  0.97906952  0.81343383  0.17760640     0.10200
H365        H  0.86396383  0.71751930  0.13143455     0.14700
H366        H  0.99240812  0.83443828  0.08818624     0.00400
H367        H  0.01757478  0.66973293  0.14143457     0.15000
H368        H  0.95132648  0.77194722  0.25145575     0.14800
C369        C  0.04789610  0.85296832  0.30568660     0.86600
C370        C  0.09390091  0.89042784  0.29189672    -0.53700
C371        C  0.08363106  0.92277327  0.24719305     0.09500
C372        C  0.02617408  0.90907820  0.21740506     0.20400
C373        C  0.99654703  0.88972235  0.30871394    -0.54400
C374        C  0.98369262  0.91930885  0.26248799     0.09600
C375        C  0.04337247  0.81928366  0.25454928    -0.53900
C376        C  0.02354958  0.84562460  0.20898945     0.10200
H377        H  0.12992132  0.89209055  0.31811809     0.14700
H378        H  0.01804005  0.93240634  0.17945180     0.00400
H379        H  0.97441588  0.89209939  0.34685140     0.15000
H380        H  0.04630205  0.77549554  0.25737399     0.14800
O381        O  0.01813956  0.45341463  0.25369299    -0.71700
O382        O  0.03904870  0.55144277  0.37167871    -0.71900
O383        O  0.03843802  0.44322841  0.36177492    -0.71800
O384        O  0.01919625  0.56310018  0.26598800    -0.71800
O385        O  0.93066664  0.56397860  0.28025609    -0.71800
O386        O  0.95005127  0.44165530  0.37683847    -0.71800
O387        O  0.95043372  0.55055292  0.38638656    -0.71700
O388        O  0.92967017  0.45303963  0.26853007    -0.71900
V389        V  0.02680395  0.50248417  0.31315885     1.35200
V390        V  0.94180165  0.50200446  0.32743853     1.35200
C391        C  0.97063209  0.43509971  0.24214701     0.77500
C392        C  0.99775605  0.56912843  0.39752539     0.77600
C393        C  0.99801248  0.42280140  0.38695518     0.77500
C394        C  0.97303073  0.58690650  0.26057168     0.77400
C395        C  0.05377680  0.18409386  0.73036495     0.86600
C396        C  0.09453539  0.13930906  0.73952974    -0.53700
C397        C  0.07615254  0.09889158  0.77363933     0.09500
C398        C  0.02179238  0.11597646  0.80524421     0.20400
C399        C  0.99640187  0.15696043  0.72069143    -0.54400
C400        C  0.98027408  0.11946280  0.75911514     0.09600
C401        C  0.05337400  0.20799480  0.78700916    -0.53900
C402        C  0.02652510  0.17690348  0.82530444     0.10200
H403        H  0.13054697  0.13540800  0.71334301     0.14700
H404        H  0.01052180  0.08751755  0.83835163     0.00400
H405        H  0.97303377  0.16581201  0.68392699     0.15000
H406        H  0.06094333  0.25092436  0.79256866     0.14800
C407        C  0.95754725  0.30474246  0.85865821     0.86600
C408        C  0.91011891  0.29260588  0.89540774    -0.53700
C409        C  0.91790639  0.24796834  0.92818908     0.09500
C410        C  0.97520444  0.21769495  0.91719439     0.20400
C411        C  0.00767879  0.30697213  0.89742970    -0.54400
C412        C  0.01864706  0.26124952  0.92792107     0.09600
C413        C  0.96172465  0.25337863  0.82546299    -0.53900
C414        C  0.97978621  0.20829971  0.85381268     0.10200
H415        H  0.87475971  0.31939723  0.89590322     0.14700
H416        H  0.98187064  0.18042329  0.94150750     0.00400
H417        H  0.03087984  0.34403176  0.89984391     0.15000
H418        H  0.96149323  0.25572221  0.78100903     0.14800
C419        C  0.99612845  0.14336390  0.31734757     0.86600
C420        C  0.94238317  0.11662545  0.30336169    -0.53700
C421        C  0.93930914  0.09468030  0.25168638     0.09500
C422        C  0.99140338  0.10937433  0.21576245     0.20400
C423        C  0.03883889  0.10084293  0.30393173    -0.54400
C424        C  0.04139518  0.08592979  0.24938466     0.09600
C425        C  0.00274502  0.18722561  0.27508871    -0.53900
C426        C  0.99760660  0.17237036  0.22129913     0.10200
H427        H  0.91330320  0.10929964  0.33599250     0.14700
H428        H  0.98908812  0.09468429  0.17293590     0.00400
H429        H  0.06872688  0.08815617  0.33480202     0.15000
H430        H  0.01243208  0.22743330  0.28909595     0.14800
C431        C  0.00554421  0.31228818  0.15117869     0.86600
C432        C  0.05979189  0.29634804  0.12669091    -0.53700
C433        C  0.06137045  0.24610304  0.10306995     0.09500
C434        C  0.00697955  0.21274536  0.11441858     0.20400
C435        C  0.96419157  0.30196923  0.10569762    -0.54400
C436        C  0.95938720  0.24847221  0.08963495     0.09600
C437        C  0.99428989  0.26986300  0.19415507    -0.53900
C438        C  0.99830360  0.21680069  0.17781162     0.10200
H439        H  0.09101076  0.32711880  0.12206185     0.14700
H440        H  0.00814968  0.17080959  0.09849572     0.00400
H441        H  0.93615740  0.33389681  0.09248942     0.15000
H442        H  0.98330958  0.28313771  0.23475497     0.14800
O443        O  0.99176243  0.24729722  0.45730553    -0.71700
O444        O  0.97612529  0.35990959  0.56136544    -0.71900
O445        O  0.96907130  0.35465374  0.45168791    -0.71800
O446        O  0.00006756  0.25368489  0.56727306    -0.71800
O447        O  0.08763138  0.27229346  0.56241067    -0.71800
O448        O  0.05711236  0.36990027  0.44468845    -0.71800
O449        O  0.06375937  0.37783974  0.55458524    -0.71700
O450        O  0.07981409  0.26325221  0.45169020    -0.71900
V451        V  0.98601910  0.30404474  0.50924282     1.35200
V452        V  0.07037526  0.32040789  0.50333560     1.35200
C453        C  0.03813289  0.23621785  0.43640271     0.77500
C454        C  0.01717221  0.38793213  0.57574057     0.77600
C455        C  0.00814380  0.38018466  0.42899432     0.77500
C456        C  0.04891801  0.24683459  0.58533748     0.77400
C457        C  0.99898491  0.16657140  0.37487529    -0.16400
C458        C  0.04285714  0.19568424  0.39213181    -0.31500
H459        H  0.96159587  0.16624516  0.39934053     0.12700
H460        H  0.08054739  0.19552607  0.36809715     0.13200
C461        C  0.06617207  0.22335377  0.68346220    -0.16400
C462        C  0.05985451  0.20800296  0.63052868    -0.31500
H463        H  0.07139404  0.26594406  0.69276215     0.12700
H464        H  0.05153005  0.16582094  0.62168396     0.13200
C465        C  0.96329064  0.39036243  0.20243452    -0.16400
C466        C  0.00638130  0.36906200  0.17513942    -0.31500
H467        H  0.92368779  0.36977786  0.20146851     0.12700
H468        H  0.04559427  0.39036417  0.17606712     0.13200
C469        C  0.93182477  0.66924369  0.20977282    -0.16400
C470        C  0.97310201  0.64251550  0.23657341    -0.31500
H471        H  0.89150803  0.65051670  0.20548688     0.12700
H472        H  0.01335762  0.66187393  0.23811134     0.13200
C473        C  0.05439763  0.81876669  0.35722594    -0.16400
C474        C  0.01069196  0.79031487  0.37587848    -0.31500
H475        H  0.09321595  0.81877525  0.37982345     0.12700
H476        H  0.97164692  0.79263521  0.35371865     0.13200
C477        C  0.01385207  0.80744451  0.61784020    -0.16400
C478        C  0.98594179  0.80159325  0.66505553    -0.31500
H479        H  0.04173520  0.84123603  0.61224670     0.12700
H480        H  0.96128274  0.76548771  0.67115092     0.13200
C481        C  0.99231979  0.61794154  0.80544328    -0.16400
C482        C  0.01776857  0.66567648  0.79665813    -0.31500
H483        H  0.96573306  0.61280240  0.84070233     0.12700
H484        H  0.04140229  0.67146593  0.75943583     0.13200
C485        C  0.95335221  0.35567518  0.82338411    -0.16400
C486        C  0.99838661  0.37444396  0.79662605    -0.31500
H487        H  0.91463400  0.37801919  0.82149318     0.12700
H488        H  0.03736062  0.35274865  0.80067749     0.13200
C489        C  0.61840967  0.98420229  0.19191303    -0.16400
C490        C  0.66649848  0.01026136  0.20112548    -0.31500
H491        H  0.61322369  0.95871411  0.15614006     0.12700
H492        H  0.67212745  0.03281197  0.23888355     0.13200
C493        C  0.35232390  0.94481121  0.17613529    -0.16400
C494        C  0.37033893  0.98724468  0.20617505    -0.31500
H495        H  0.37627701  0.90760757  0.17504896     0.12700
H496        H  0.34731106  0.02496368  0.20488151     0.13200
C497        C  0.21109569  0.05062162  0.36724427    -0.16400
C498        C  0.22697400  0.05580680  0.31422979    -0.31500
H499        H  0.16766652  0.04360229  0.37580880     0.12700
H500        H  0.27059918  0.05986809  0.30474214     0.13200
C501        C  0.19546252  0.04294601  0.60649564    -0.16400
C502        C  0.16677643  0.00045872  0.62543823    -0.31500
H503        H  0.19579926  0.08053179  0.62941126     0.12700
H504        H  0.16626945  0.96325411  0.60186488     0.13200
C505        C  0.80973723  0.00099333  0.38545733    -0.16400
C506        C  0.80130468  0.97529971  0.33742667    -0.31500
H507        H  0.84574759  0.02643494  0.39141409     0.12700
H508        H  0.76329108  0.95282442  0.33093788     0.13200
C509        C  0.82307201  0.04658499  0.64581049    -0.16400
C510        C  0.79484059  0.00251070  0.62853921    -0.31500
H511        H  0.82171092  0.08366351  0.62207267     0.12700
H512        H  0.79846272  0.96507540  0.65144465     0.13200
C513        C  0.63110966  0.94100194  0.78943571    -0.16400
C514        C  0.68474176  0.93694088  0.77364640    -0.31500
H515        H  0.62225559  0.94688417  0.83254086     0.12700
H516        H  0.69424211  0.93378275  0.73037484     0.13200
C517        C  0.37428718  0.99800004  0.83551679    -0.16400
C518        C  0.39004014  0.95543605  0.80489728    -0.31500
H519        H  0.40054287  0.03346044  0.83787011     0.12700
H520        H  0.36418992  0.91964782  0.80330174     0.13200
C521        C  0.20818064  0.62323685  0.00536793    -0.16400
C522        C  0.17926132  0.64296863  0.04817967    -0.31500
H523        H  0.20676585  0.64466777  0.96657058     0.12700
H524        H  0.17860660  0.62074534  0.08651407     0.13200
C525        C  0.20183441  0.33148389  0.98576245    -0.16400
C526        C  0.19170769  0.37935065  0.01032218    -0.31500
H527        H  0.24050093  0.32522274  0.96416164     0.12700
H528        H  0.15484706  0.38491204  0.03489817     0.13200
C529        C  0.38294008  0.18917722  0.99962179    -0.16400
C530        C  0.33378631  0.19693824  0.02412001    -0.31500
H531        H  0.38957498  0.15409425  0.97381666     0.12700
H532        H  0.32656843  0.23402200  0.04684022     0.13200
C533        C  0.62595612  0.19931528  0.00041672    -0.16400
C534        C  0.64266781  0.17101831  0.95595993    -0.31500
H535        H  0.64918308  0.19575095  0.03842906     0.12700
H536        H  0.61853198  0.17230256  0.91835091     0.13200
C537        C  0.79143105  0.36776244  0.05235872    -0.16400
C538        C  0.77410298  0.31598841  0.05906322    -0.31500
H539        H  0.83484264  0.37505431  0.04391472     0.12700
H540        H  0.73039186  0.30778401  0.06461732     0.13200
C541        C  0.83163649  0.62689151  0.99437706    -0.16400
C542        C  0.80408804  0.60774763  0.03804266    -0.31500
H543        H  0.83156891  0.60365872  0.95667738     0.12700
H544        H  0.80456045  0.63059843  0.07596923     0.13200
C545        C  0.35079148  0.76075553  0.96949592    -0.16400
C546        C  0.32503945  0.78738533  0.92775132    -0.31500
H547        H  0.32983879  0.75970040  0.00873053     0.12700
H548        H  0.34509894  0.79104919  0.88831160     0.13200
C549        C  0.62340771  0.83060307  0.00372651    -0.16400
C550        C  0.60434110  0.80011170  0.96215232    -0.31500
H551        H  0.60016255  0.83195460  0.04163213     0.12700
H552        H  0.62711536  0.79928144  0.92395841     0.13200
loop_ 
_geom_bond_atom_site_label_1 
_geom_bond_atom_site_label_2 
_geom_bond_distance 
_geom_bond_site_symmetry_2 
_ccdc_geom_bond_type 
O1            V9   1.927       .  S
O1           C11   1.267       .  A
O2            V9   1.921       .  S
O2           C12   1.269       .  A
O3            V9   1.885       .  S
O3           C13   1.263       .  A
O4            V9   1.903       .  S
O4           C14   1.264       .  A
O5           V10   1.909       .  S
O5           C14   1.267   1_554  A
O6           V10   1.896       .  S
O6           C13   1.261   1_554  A
O7           V10   1.910       .  S
O7           C12   1.267   1_554  A
O8           V10   1.902       .  S
O8           C11   1.267   1_554  A
V9           V10   2.087   1_556  T
C11         C545   1.491       .  S
C12          C50   1.489   1_556  S
C13         C150   1.453   1_556  S
C14         C550   1.482       .  S
C15          C16   1.493       .  S
C15          C21   1.514   1_556  S
C15          C19   1.514   1_556  S
C15         C541   1.521       .  S
C16          H23   1.082       .  S
C16          C17   1.373       .  D
C17          C18   1.587       .  S
C17         C336   1.512       .  S
C18          C22   1.561       .  S
C18          C20   1.562   1_556  S
C18          H24   1.110       .  S
C19          H25   1.087       .  S
C19          C20   1.388       .  D
C20         C359   1.529       .  S
C21          H26   1.079       .  S
C21          C22   1.374   1_554  D
C22          C34   1.519   1_556  S
C27          C28   1.494       .  S
C27          C33   1.512   1_554  S
C27          C31   1.513   1_554  S
C27         C549   1.523       .  S
C28          H35   1.083       .  S
C28          C29   1.374       .  D
C29          C30   1.582       .  S
C29         C272   1.511       .  S
C30          C34   1.565       .  S
C30          C32   1.565   1_554  S
C30          H36   1.110       .  S
C31          H37   1.086       .  S
C31          C32   1.388       .  D
C32         C181   1.524       .  S
C33          H38   1.079       .  S
C33          C34   1.372   1_556  D
O39          V47   1.911       .  S
O39          C49   1.263       .  A
O40          V47   1.911       .  S
O40          C50   1.267       .  A
O41          V47   1.900       .  S
O41          C51   1.266       .  A
O42          V47   1.908       .  S
O42          C52   1.266       .  A
O43          V48   1.902       .  S
O43          C52   1.265   1_556  A
O44          V48   1.901       .  S
O44          C51   1.262   1_556  A
O45          V48   1.921       .  S
O45          C50   1.269   1_556  A
O46          V48   1.914       .  S
O46          C49   1.269   1_556  A
V47          V48   2.087   1_554  T
C49         C537   1.482       .  S
C51          C89   1.466       .  S
C52         C542   1.481       .  S
C53          C54   1.490       .  S
C53          C59   1.511       .  S
C53          C57   1.535   1_556  S
C53         C534   1.525       .  S
C54          H61   1.080       .  S
C54          C55   1.374       .  D
C55          C56   1.610       .  S
C55         C184   1.512       .  S
C56          C60   1.585       .  S
C56          C58   1.535   1_556  S
C56          H62   1.108       .  S
C57          H63   1.078       .  S
C57          C58   1.377       .  D
C58         C269   1.524       .  S
C59          H64   1.088       .  S
C59          C60   1.376       .  D
C60          C72   1.550   1_556  S
C65          C66   1.489       .  S
C65          C71   1.512       .  S
C65          C69   1.549   1_554  S
C65         C538   1.533       .  S
C66          H73   1.087       .  S
C66          C67   1.374       .  D
C67          C68   1.591       .  S
C67         C436   1.522       .  S
C68          C72   1.596       .  S
C68          C70   1.517   1_554  S
C68          H74   1.108       .  S
C69          H75   1.080       .  S
C69          C70   1.373       .  D
C70         C409   1.505       .  S
C71          H76   1.086       .  S
C71          C72   1.387       .  D
O77          V85   1.897       .  S
O77          C87   1.260   1_556  A
O78          V85   1.893       .  S
O78          C88   1.262   1_556  A
O79          V85   1.911       .  S
O79          C89   1.267   1_556  A
O80          V85   1.905       .  S
O80          C90   1.265   1_556  A
O81          V86   1.896       .  S
O81          C90   1.261       .  A
O82          V86   1.890       .  S
O82          C89   1.261       .  A
O83          V86   1.903       .  S
O83          C88   1.265       .  A
O84          V86   1.910       .  S
O84          C87   1.269       .  A
V85          V86   2.089   1_556  T
C87         C533   1.475       .  S
C88         C151   1.463       .  S
C90         C529   1.467   1_554  S
C91          C92   1.484       .  S
C91          C97   1.522       .  S
C91          C95   1.538   1_556  S
C91         C525   1.516       .  S
C92          H99   1.079       .  S
C92          C93   1.367       .  D
C93          C94   1.602   1_556  S
C93         C412   1.516       .  S
C94          C98   1.597   1_554  S
C94          C96   1.538       .  S
C94         H100   1.109       .  S
C95         H101   1.084       .  S
C95          C96   1.374       .  D
C96         C433   1.510       .  S
C97         H102   1.083       .  S
C97          C98   1.386       .  D
C98         C110   1.567   1_556  S
C103        C104   1.486       .  S
C103        C109   1.519       .  S
C103        C107   1.548   1_554  S
C103        C530   1.517       .  S
C104        H111   1.077       .  S
C104        C105   1.370       .  D
C105        C106   1.603       .  S
C105        C248   1.512       .  S
C106        C110   1.601       .  S
C106        C108   1.533   1_554  S
C106        H112   1.109   1_554  S
C107        H113   1.085       .  S
C107        C108   1.378       .  D
C108        C219   1.513       .  S
C109        H114   1.083       .  S
C109        C110   1.378       .  D
C115        C116   1.489       .  S
C115        C121   1.512       .  S
C115        C119   1.543   1_554  S
C115        C522   1.526       .  S
C116        H123   1.083       .  S
C116        C117   1.369       .  D
C117        C118   1.596       .  S
C117        C362   1.501       .  S
C118        C122   1.582       .  S
C118        C120   1.527   1_554  S
C118        H124   1.109       .  S
C119        H125   1.078       .  S
C119        C120   1.382       .  D
C120        C333   1.519       .  S
C121        H126   1.088       .  S
C121        C122   1.378       .  D
C122        C134   1.540   1_554  S
C127        C128   1.510       .  S
C127        C133   1.500       .  S
C127        C131   1.554       .  S
C127        C546   1.542       .  S
C128        H135   1.088       .  S
C128        C129   1.381       .  D
C129        C130   1.594       .  S
C129        C222   1.533       .  S
C130        C134   1.589       .  S
C130        C132   1.507   1_556  S
C130        H136   1.109       .  S
C131        H137   1.083   1_556  S
C131        C132   1.369   1_556  D
C132        C245   1.495       .  S
C133        H138   1.087       .  S
C133        C134   1.385       .  D
O139        V147   1.889       .  S
O139        C149   1.259   1_556  A
O140        V147   1.875       .  S
O140        C150   1.258   1_556  A
O141        V147   1.897       .  S
O141        C151   1.264   1_556  A
O142        V147   1.907       .  S
O142        C152   1.268   1_556  A
O143        V148   1.905       .  S
O143        C152   1.263       .  A
O144        V148   1.900       .  S
O144        C151   1.263       .  A
O145        V148   1.907       .  S
O145        C150   1.266       .  A
O146        V148   1.906       .  S
O146        C149   1.266       .  A
V147        V148   2.090   1_556  T
C149        C526   1.465       .  S
C152        C521   1.479       .  S
O153        V161   1.892       .  S
O153        C163   1.262   1_545  A
O154        V161   1.890       .  S
O154        C164   1.259   1_545  A
O155        V161   1.921       .  S
O155        C165   1.270   1_545  A
O156        V161   1.916   1_565  S
O156        C166   1.269       .  A
O157        V162   1.915       .  S
O157        C166   1.264       .  A
O158        V162   1.913       .  S
O158        C165   1.266       .  A
O159        V162   1.894       .  S
O159        C164   1.265       .  A
O160        V162   1.907       .  S
O160        C163   1.266       .  A
V161        V162   2.087   1_545  T
C163        C518   1.473       .  S
C164        C202   1.455       .  S
C165        C241   1.491   1_565  S
C166        C513   1.486       .  S
C167        C168   1.489       .  S
C167        C173   1.516       .  S
C167        C171   1.537   1_545  S
C167        C509   1.525       .  S
C168        H175   1.081       .  S
C168        C169   1.371       .  D
C169        C170   1.609       .  S
C169        C400   1.507       .  S
C170        C174   1.579       .  S
C170        C172   1.536   1_545  S
C170        H176   1.108       .  S
C171        H177   1.080       .  S
C171        C172   1.376       .  D
C172        C321   1.524       .  S
C173        H178   1.088       .  S
C173        C174   1.381       .  D
C174        C186   1.550   1_545  S
C179        C180   1.492       .  S
C179        C185   1.509       .  S
C179        C183   1.557   1_565  S
C179        C514   1.535       .  S
C180        H187   1.088       .  S
C180        C181   1.374       .  D
C181        C182   1.595       .  S
C182        C186   1.599       .  S
C182        C184   1.512   1_565  S
C182        H188   1.109       .  S
C183        H189   1.080       .  S
C183        C184   1.378       .  D
C185        H190   1.087       .  S
C185        C186   1.381       .  D
O191        V199   1.886       .  S
O191        C201   1.258       .  A
O192        V199   1.877       .  S
O192        C202   1.256       .  A
O193        V199   1.904       .  S
O193        C203   1.266       .  A
O194        V199   1.911       .  S
O194        C204   1.269   1_565  A
O195        V200   1.897       .  S
O195        C204   1.260       .  A
O196        V200   1.893       .  S
O196        C203   1.261   1_545  A
O197        V200   1.910       .  S
O197        C202   1.268   1_545  A
O198        V200   1.907       .  S
O198        C201   1.267   1_545  A
V199        V200   2.090   1_565  T
C201        C505   1.464   1_565  S
C203        C302   1.463       .  S
C204        C510   1.476       .  S
C205        C206   1.494       .  S
C205        C211   1.519   1_565  S
C205        C209   1.511   1_565  S
C205        C502   1.513   1_565  S
C206        H213   1.082       .  S
C206        C207   1.371       .  D
C207        C208   1.584       .  S
C207        C324   1.511       .  S
C208        C212   1.557   1_565  S
C208        C210   1.564   1_565  S
C208        H214   1.109       .  S
C209        H215   1.087       .  S
C209        C210   1.384       .  D
C210        C397   1.521       .  S
C211        H216   1.080       .  S
C211        C212   1.374       .  D
C212        C224   1.516       .  S
C217        C218   1.493       .  S
C217        C223   1.515       .  S
C217        C221   1.507   1_545  S
C217        C517   1.512   1_545  S
C218        H225   1.083       .  S
C218        C219   1.373       .  D
C219        C220   1.593       .  S
C220        C224   1.562       .  S
C220        C222   1.566   1_545  S
C220        H226   1.109       .  S
C221        H227   1.087       .  S
C221        C222   1.385       .  D
C223        H228   1.080   1_545  S
C223        C224   1.370       .  D
O229        V237   1.892       .  S
O229        C239   1.264   1_565  A
O230        V237   1.894       .  S
O230        C240   1.259   1_565  A
O231        V237   1.920       .  S
O231        C241   1.270   1_565  A
O232        V237   1.915       .  S
O232        C242   1.269   1_565  A
O233        V238   1.915       .  S
O233        C242   1.264       .  A
O234        V238   1.915       .  S
O234        C241   1.267       .  A
O235        V238   1.891       .  S
O235        C240   1.265       .  A
O236        V238   1.906       .  S
O236        C239   1.265       .  A
V237        V238   2.087   1_565  T
C239        C501   1.475       .  S
C240        C303   1.455   1_545  S
C242        C497   1.486       .  S
C243        C244   1.488       .  S
C243        C249   1.517       .  S
C243        C247   1.542   1_565  S
C243        C493   1.525       .  S
C244        H251   1.084       .  S
C244        C245   1.371       .  D
C245        C246   1.594       .  S
C246        C250   1.575       .  S
C246        C248   1.524   1_565  S
C246        H252   1.108       .  S
C247        H253   1.077       .  S
C247        C248   1.377       .  D
C249        H254   1.088       .  S
C249        C250   1.380       .  D
C250        C262   1.540   1_565  S
C255        C256   1.489       .  S
C255        C261   1.509       .  S
C255        C259   1.553   1_545  S
C255        C498   1.535       .  S
C256        H263   1.088       .  S
C256        C257   1.374       .  D
C257        C258   1.593       .  S
C257        C424   1.520       .  S
C258        C262   1.591       .  S
C258        C260   1.516   1_545  S
C258        H264   1.109       .  S
C259        H265   1.078       .  S
C259        C260   1.376       .  D
C260        C371   1.511       .  S
C261        H266   1.086       .  S
C261        C262   1.384       .  D
C267        C268   1.487       .  S
C267        C273   1.520       .  S
C267        C271   1.541   1_545  S
C267        C490   1.514       .  S
C268        H275   1.078       .  S
C268        C269   1.371       .  D
C269        C270   1.604   1_545  S
C270        C274   1.605   1_565  S
C270        C272   1.540       .  S
C270        H276   1.109       .  S
C271        H277   1.085       .  S
C271        C272   1.374       .  D
C273        H278   1.084       .  S
C273        C274   1.380       .  D
C274        C286   1.569   1_545  S
C279        C280   1.486       .  S
C279        C285   1.521       .  S
C279        C283   1.538   1_565  S
C279        C506   1.516       .  S
C280        H287   1.079       .  S
C280        C281   1.369       .  D
C281        C282   1.605       .  S
C281        C374   1.519       .  S
C282        C286   1.597       .  S
C282        C284   1.542   1_565  S
C282        H288   1.109   1_565  S
C283        H289   1.084       .  S
C283        C284   1.371       .  D
C284        C421   1.512       .  S
C285        H290   1.083       .  S
C285        C286   1.387       .  D
O291        V299   1.900       .  S
O291        C301   1.261       .  A
O292        V299   1.895       .  S
O292        C302   1.262       .  A
O293        V299   1.911       .  S
O293        C303   1.268       .  A
O294        V299   1.908       .  S
O294        C304   1.267       .  A
O295        V300   1.886       .  S
O295        C304   1.259   1_545  A
O296        V300   1.875       .  S
O296        C303   1.257   1_545  A
O297        V300   1.901       .  S
O297        C302   1.265   1_545  A
O298        V300   1.908       .  S
O298        C301   1.268   1_545  A
V299        V300   2.090   1_565  T
C301        C494   1.475       .  S
C304        C489   1.464       .  S
O305        V313   1.904       .  S
O305        C315   1.262       .  A
O306        V313   1.898       .  S
O306        C316   1.263   1_655  A
O307        V313   1.910       .  S
O307        C317   1.268   1_655  A
O308        V313   1.908       .  S
O308        C318   1.266       .  A
O309        V314   1.897       .  S
O309        C318   1.262   1_455  A
O310        V314   1.892       .  S
O310        C317   1.260       .  A
O311        V314   1.902       .  S
O311        C316   1.265       .  A
O312        V314   1.911       .  S
O312        C315   1.269   1_455  A
V313        V314   2.089   1_655  T
C315        C486   1.482       .  S
C316        C354   1.465       .  S
C317        C454   1.466       .  S
C318        C481   1.472       .  S
C319        C320   1.489       .  S
C319        C325   1.521       .  S
C319        C323   1.545   1_655  S
C319        C478   1.518       .  S
C320        H327   1.081       .  S
C320        C321   1.373       .  D
C321        C322   1.605   1_655  S
C322        C326   1.604   1_455  S
C322        C324   1.536       .  S
C322        H328   1.109       .  S
C323        H329   1.085       .  S
C323        C324   1.377       .  D
C325        H330   1.084       .  S
C325        C326   1.377       .  D
C326        C338   1.572   1_655  S
C331        C332   1.488       .  S
C331        C337   1.524       .  S
C331        C335   1.540   1_455  S
C331        C482   1.521       .  S
C332        H339   1.078       .  S
C332        C333   1.368       .  D
C333        C334   1.604       .  S
C334        C338   1.598       .  S
C334        C336   1.540   1_455  S
C334        H340   1.109   1_455  S
C335        H341   1.085       .  S
C335        C336   1.377       .  D
C337        H342   1.083       .  S
C337        C338   1.387       .  D
O343        V351   1.904       .  S
O343        C353   1.262       .  A
O344        V351   1.899       .  S
O344        C354   1.263       .  A
O345        V351   1.908       .  S
O345        C355   1.266       .  A
O346        V351   1.908       .  S
O346        C356   1.266       .  A
O347        V352   1.894       .  S
O347        C356   1.261   1_655  A
O348        V352   1.881       .  S
O348        C355   1.259   1_655  A
O349        V352   1.899       .  S
O349        C354   1.264   1_655  A
O350        V352   1.905       .  S
O350        C353   1.267   1_655  A
V351        V352   2.089   1_455  T
C353        C474   1.476       .  S
C355        C392   1.457   1_455  S
C356        C477   1.470       .  S
C357        C358   1.506       .  S
C357        C363   1.504       .  S
C357        C361   1.554       .  S
C357        C469   1.548       .  S
C358        H365   1.088       .  S
C358        C359   1.378       .  D
C359        C360   1.591       .  S
C360        C364   1.588       .  S
C360        C362   1.510   1_655  S
C360        H366   1.109       .  S
C361        H367   1.082   1_655  S
C361        C362   1.374   1_655  D
C363        H368   1.087       .  S
C363        C364   1.388       .  D
C364        C376   1.542   1_655  S
C369        C370   1.491       .  S
C369        C375   1.507       .  S
C369        C373   1.538   1_455  S
C369        C473   1.524       .  S
C370        H377   1.079       .  S
C370        C371   1.375       .  D
C371        C372   1.602       .  S
C372        C376   1.586       .  S
C372        C374   1.531   1_455  S
C372        H378   1.108       .  S
C373        H379   1.079       .  S
C373        C374   1.379       .  D
C375        H380   1.088       .  S
C375        C376   1.373       .  D
O381        V389   1.907       .  S
O381        C391   1.267   1_455  A
O382        V389   1.899       .  S
O382        C392   1.262   1_455  A
O383        V389   1.906       .  S
O383        C393   1.265   1_455  A
O384        V389   1.899       .  S
O384        C394   1.266   1_455  A
O385        V390   1.935       .  S
O385        C394   1.270       .  A
O386        V390   1.929       .  S
O386        C393   1.271       .  A
O387        V390   1.889       .  S
O387        C392   1.263       .  A
O388        V390   1.905       .  S
O388        C391   1.264       .  A
V389        V390   2.086   1_455  T
C391        C465   1.484       .  S
C393        C455   1.491   1_655  S
C394        C470   1.496       .  S
C395        C396   1.496       .  S
C395        C401   1.506       .  S
C395        C399   1.560   1_455  S
C395        C461   1.534       .  S
C396        H403   1.088       .  S
C396        C397   1.379       .  D
C397        C398   1.585       .  S
C398        C402   1.591       .  S
C398        C400   1.507   1_455  S
C398        H404   1.108       .  S
C399        H405   1.080       .  S
C399        C400   1.379       .  D
C401        H406   1.088       .  S
C401        C402   1.378       .  D
C402        C414   1.539   1_455  S
C407        C408   1.492       .  S
C407        C413   1.513       .  S
C407        C411   1.535   1_655  S
C407        C485   1.530       .  S
C408        H415   1.080       .  S
C408        C409   1.376       .  D
C409        C410   1.597       .  S
C410        C414   1.571       .  S
C410        C412   1.530   1_655  S
C410        H416   1.108       .  S
C411        H417   1.079       .  S
C411        C412   1.379       .  D
C413        H418   1.088       .  S
C413        C414   1.381       .  D
C419        C420   1.498       .  S
C419        C425   1.508   1_655  S
C419        C423   1.509   1_655  S
C419        C457   1.521       .  S
C420        H427   1.082       .  S
C420        C421   1.377       .  D
C421        C422   1.583       .  S
C422        C426   1.574       .  S
C422        C424   1.566   1_655  S
C422        H428   1.110       .  S
C423        H429   1.087       .  S
C423        C424   1.385       .  D
C425        H430   1.079       .  S
C425        C426   1.371   1_455  D
C426        C438   1.529       .  S
C431        C432   1.497       .  S
C431        C437   1.511   1_455  S
C431        C435   1.513   1_455  S
C431        C466   1.524       .  S
C432        H439   1.081       .  S
C432        C433   1.373       .  D
C433        C434   1.581       .  S
C434        C438   1.568   1_455  S
C434        C436   1.567   1_455  S
C434        H440   1.110       .  S
C435        H441   1.087       .  S
C435        C436   1.387       .  D
C437        H442   1.080       .  S
C437        C438   1.377       .  D
O443        V451   1.900       .  S
O443        C453   1.264   1_655  A
O444        V451   1.897       .  S
O444        C454   1.262   1_655  A
O445        V451   1.924       .  S
O445        C455   1.269   1_655  A
O446        V451   1.915   1_455  S
O446        C456   1.269       .  A
O447        V452   1.914       .  S
O447        C456   1.264       .  A
O448        V452   1.910       .  S
O448        C455   1.267       .  A
O449        V452   1.903       .  S
O449        C454   1.266       .  A
O450        V452   1.911       .  S
O450        C453   1.267       .  A
V451        V452   2.087   1_655  T
C453        C458   1.481       .  S
C456        C462   1.485       .  S
C457        H459   1.087       .  S
C457        C458   1.351   1_655  D
C458        H460   1.087       .  S
C461        H463   1.087       .  S
C461        C462   1.357       .  D
C462        H464   1.086       .  S
C465        H467   1.087       .  S
C465        C466   1.346   1_655  D
C466        H468   1.087       .  S
C469        H471   1.086       .  S
C469        C470   1.360       .  D
C470        H472   1.087   1_655  S
C473        H475   1.086       .  S
C473        C474   1.353       .  D
C474        H476   1.087   1_455  S
C477        H479   1.086       .  S
C477        C478   1.348   1_455  D
C478        H480   1.087       .  S
C481        H483   1.086       .  S
C481        C482   1.352   1_655  D
C482        H484   1.087       .  S
C485        H487   1.086       .  S
C485        C486   1.357       .  D
C486        H488   1.087   1_655  S
C489        H491   1.086       .  S
C489        C490   1.350   1_565  D
C490        H492   1.087       .  S
C493        H495   1.086       .  S
C493        C494   1.354       .  D
C494        H496   1.086   1_565  S
C497        H499   1.086       .  S
C497        C498   1.360       .  D
C498        H500   1.086       .  S
C501        H503   1.087       .  S
C501        C502   1.346       .  D
C502        H504   1.087   1_545  S
C505        H507   1.086       .  S
C505        C506   1.351   1_545  D
C506        H508   1.087       .  S
C509        H511   1.086       .  S
C509        C510   1.356       .  D
C510        H512   1.085   1_545  S
C513        H515   1.086       .  S
C513        C514   1.358       .  D
C514        H516   1.086       .  S
C517        H519   1.087   1_565  S
C517        C518   1.348       .  D
C518        H520   1.087       .  S
C521        H523   1.086   1_554  S
C521        C522   1.353       .  D
C522        H524   1.086       .  S
C525        H527   1.087       .  S
C525        C526   1.351   1_556  D
C526        H528   1.086       .  S
C529        H531   1.086       .  S
C529        C530   1.347   1_556  D
C530        H532   1.088       .  S
C533        H535   1.086       .  S
C533        C534   1.356   1_554  D
C534        H536   1.086       .  S
C537        H539   1.087       .  S
C537        C538   1.360       .  D
C538        H540   1.086       .  S
C541        H543   1.087       .  S
C541        C542   1.348   1_556  D
C542        H544   1.087       .  S
C545        H547   1.088   1_556  S
C545        C546   1.360       .  D
C546        H548   1.086       .  S
C549        H551   1.087       .  S
C549        C550   1.347   1_554  D
C550        H552   1.087       .  S
