geometry optimzed in LAMMPS
_audit_creation_date              2020-12-01 
_audit_creation_method            'lammps2cif' 
_symmetry_space_group_name_H-M    'P1' 
_symmetry_Int_Tables_number       1 
_symmetry_cell_setting            triclinic 
loop_ 
_symmetry_equiv_pos_as_xyz 
  x,y,z 
_cell_length_a                    48.79955874 
_cell_length_b                    48.94430706534907 
_cell_length_c                    35.327462275250284 
_cell_angle_alpha                 90.06876969474364 
_cell_angle_beta                  89.41559259719001 
_cell_angle_gamma                 90.0976028959392 
loop_ 
_atom_site_label 
_atom_site_type_symbol 
_atom_site_fract_x 
_atom_site_fract_y 
_atom_site_fract_z 
_atom_site_charge 
O1          O  0.97785536  0.05599030  0.19197575    -0.77500
C2          C  0.06108681  0.04512816  0.22811268     0.83500
O3          O  0.99573580  0.96444419  0.15340653    -0.78600
O4          O  0.05026054  0.96273859  0.26999777    -0.80100
O5          O  0.97269339  0.01975526  0.31819752    -0.79900
O6          O  0.94683501  0.04638559  0.23648988    -0.78500
Zn7        Zn  0.00665587  0.02667034  0.19506469     1.55700
O8          O  0.01575339  0.00532517  0.32514709    -0.79900
Cd9        Cd  0.96497601  0.01248855  0.26151597     1.59700
Cd10       Cd  0.99442087  0.96255841  0.21288846     1.59600
O11         O  0.93699074  0.98102702  0.26228634    -0.79900
O12         O  0.99913142  0.00039008  0.23447625    -1.90400
Cd13       Cd  0.03034363  0.99996643  0.27067344     1.59900
O14         O  0.95742164  0.94591764  0.23297709    -0.79900
O15         O  0.05914512  0.02987683  0.25724205    -0.78500
C16         C  0.00160190  0.98455695  0.13169503     0.84000
C17         C  0.95531337  0.06103894  0.20891477     0.83700
O18         O  0.04286673  0.04506141  0.20256265    -0.77500
C19         C  0.99299536  0.01362322  0.33892142     0.84500
O20         O  0.00677774  0.00821536  0.14483048    -0.77600
C21         C  0.93737851  0.95614025  0.25181353     0.84600
C22         C  0.04598098  0.94002482  0.25338251     0.84900
O23         O  0.02592925  0.93670501  0.23086266    -0.80000
O24         O  0.96711426  0.05179923  0.69277496    -0.77500
C25         C  0.05149856  0.05087571  0.71592335     0.83500
O26         O  0.99252881  0.96129739  0.65429200    -0.78600
O27         O  0.05206743  0.96756550  0.76482137    -0.80100
O28         O  0.97220208  0.01464654  0.82013118    -0.79900
O29         O  0.94164349  0.04343078  0.74385135    -0.78500
Zn30       Zn  0.99759425  0.02499124  0.69269865     1.55700
O31         O  0.01774829  0.00954909  0.82210971    -0.79900
Cd32       Cd  0.96189344  0.00889024  0.76400661     1.59700
Cd33       Cd  0.99317848  0.96143008  0.71361061     1.59600
O34         O  0.93473094  0.97636313  0.76275578    -0.79900
O35         O  0.99579362  0.99975712  0.73403692    -1.90400
Cd36       Cd  0.02974791  0.00388422  0.76568557     1.59900
O37         O  0.95781662  0.94250643  0.73438317    -0.79900
O38         O  0.05486523  0.03633274  0.74560723    -0.78500
C39         C  0.99446827  0.98146186  0.63156920     0.84000
C40         C  0.94691556  0.05740895  0.71421842     0.83700
O41         O  0.03108528  0.04746423  0.69452369    -0.77500
C42         C  0.99453774  0.01324955  0.83844726     0.84500
O43         O  0.99678084  0.00582465  0.64356329    -0.77600
C44         C  0.93671534  0.95158634  0.75197336     0.84600
C45         C  0.04776344  0.94391970  0.75067371     0.84900
O46         O  0.02669674  0.93867747  0.73083131    -0.80000
O47         O  0.30295835  0.28913301  0.10505320    -0.77500
C48         C  0.31021174  0.20074642  0.10761648     0.83500
O49         O  0.21934197  0.25732863  0.05288838    -0.78600
O50         O  0.22355599  0.18939847  0.14884329    -0.80100
O51         O  0.26310160  0.25886903  0.22757547    -0.79900
O52         O  0.29263506  0.30330555  0.16327840    -0.78500
Zn53       Zn  0.28147730  0.25522882  0.09579010     1.55700
O54         O  0.26360720  0.21414979  0.21511611    -0.79900
Cd55       Cd  0.25964620  0.27738779  0.17531362     1.59700
Cd56       Cd  0.21677442  0.25395437  0.11199643     1.59600
O57         O  0.22526876  0.30132895  0.18053650    -0.79900
O58         O  0.25421071  0.24951171  0.13466084    -1.90400
Cd59       Cd  0.25908832  0.21194864  0.15657224     1.59900
O60         O  0.19607426  0.28743108  0.13617863    -0.79900
O61         O  0.29285943  0.19193708  0.13206034    -0.78500
C62         C  0.24048192  0.25789551  0.03132111     0.84000
C63         C  0.30638090  0.30556878  0.13253811     0.83700
O64         O  0.30816499  0.22438235  0.09311852    -0.77500
C65         C  0.26370657  0.23405035  0.23846986     0.84500
O66         O  0.26457089  0.25758032  0.04473599    -0.77600
C67         C  0.20240467  0.30310572  0.16376016     0.84600
C68         C  0.19965959  0.19558597  0.13724186     0.84900
O69         O  0.19408331  0.21901389  0.12355220    -0.80000
O70         O  0.30103112  0.28904814  0.58885662    -0.77500
C71         C  0.31368169  0.20376004  0.61473535     0.83500
O72         O  0.21569267  0.24455045  0.55710294    -0.78600
O73         O  0.23352001  0.19201171  0.67038169    -0.80100
O74         O  0.26837911  0.27701775  0.71990981    -0.79900
O75         O  0.29011640  0.31029169  0.64249698    -0.78500
Zn76       Zn  0.28031962  0.25336109  0.59145220     1.55700
O77         O  0.27163100  0.23160883  0.72310642    -0.79900
Cd78       Cd  0.25987125  0.28506994  0.66408479     1.59700
Cd79       Cd  0.21632441  0.24685041  0.61657199     1.59600
O80         O  0.22408830  0.30674765  0.66332511    -0.79900
O81         O  0.25542517  0.25087588  0.63427726    -1.90400
Cd82       Cd  0.26566171  0.21920114  0.66718720     1.59900
O83         O  0.19307688  0.28071523  0.63415449    -0.79900
O84         O  0.29971654  0.19868350  0.64471142    -0.78500
C85         C  0.23543680  0.24507111  0.53306002     0.84000
C86         C  0.30365293  0.30905219  0.61160563     0.83700
O87         O  0.30829234  0.22389722  0.59345692    -0.77500
C88         C  0.27162113  0.25514575  0.73873323     0.84500
O89         O  0.26018132  0.24820741  0.54323137    -0.77600
C90         C  0.19989313  0.30257519  0.65158781     0.84600
C91         C  0.20876941  0.19184622  0.65935954     0.84900
O92         O  0.19883052  0.21108800  0.63922734    -0.80000
O93         O  0.19352365  0.72114578  0.34459960    -0.77500
C94         C  0.19976950  0.81071374  0.36215302     0.83500
O95         O  0.28165529  0.74429471  0.29710257    -0.78600
O96         O  0.28524854  0.80520219  0.40726219    -0.80100
O97         O  0.23347035  0.73371440  0.46911576    -0.79900
O98         O  0.20598767  0.69774929  0.39555131    -0.78500
Zn99       Zn  0.21935791  0.75329887  0.34138395     1.55700
O100        O  0.23798987  0.77906020  0.46496229    -0.79900
Cd101      Cd  0.23935247  0.72013079  0.41410994     1.59700
Cd102      Cd  0.28485641  0.74599227  0.35596127     1.59600
O103        O  0.27148120  0.69278296  0.41467394    -0.79900
O104        O  0.24752593  0.75156413  0.37960509    -1.90400
Cd105      Cd  0.24692545  0.78670748  0.40867916     1.59900
O106        O  0.30294479  0.71000638  0.37513203    -0.79900
O107        O  0.21764842  0.81366600  0.38793133    -0.78500
C108        C  0.26060163  0.74700168  0.27631502     0.84000
C109        C  0.19087944  0.70072164  0.36667232     0.83700
O110        O  0.19792806  0.78862005  0.34319847    -0.77500
C111        C  0.23388258  0.75741644  0.48420375     0.84500
O112        O  0.23682254  0.75090950  0.29039270    -0.77600
C113        C  0.29476989  0.69161129  0.39823817     0.84600
C114        C  0.30813835  0.79893616  0.39176711     0.84900
O115        O  0.31098261  0.77768262  0.37116982    -0.80000
O116        O  0.19118969  0.71871575  0.85046146    -0.77500
C117        C  0.19320952  0.80911396  0.86444745     0.83500
O118        O  0.27555785  0.74664195  0.79440226    -0.78600
O119        O  0.27912085  0.80922150  0.90406553    -0.80100
O120        O  0.23646732  0.73407301  0.96950074    -0.79900
O121        O  0.20894738  0.69570042  0.89880247    -0.78500
Zn122      Zn  0.21486202  0.75234831  0.84334246     1.55700
O123        O  0.23652991  0.77962975  0.96541481    -0.79900
Cd124      Cd  0.24176487  0.72054200  0.91435701     1.59700
Cd125      Cd  0.28120794  0.75066500  0.85235891     1.59600
O126        O  0.27769964  0.69743405  0.91467887    -0.79900
O127        O  0.24482897  0.75270729  0.87930071    -1.90400
Cd128      Cd  0.24271212  0.78763631  0.90862571     1.59900
O129        O  0.30447160  0.71820246  0.87203595    -0.79900
O130        O  0.21136264  0.81257984  0.88967722    -0.78500
C131        C  0.25361326  0.74747796  0.77516469     0.84000
C132        C  0.19134832  0.69809307  0.87252256     0.83700
O133        O  0.19171604  0.78696389  0.84548125    -0.77500
C134        C  0.23523595  0.75770094  0.98472403     0.84500
O135        O  0.23012737  0.75004512  0.79077099    -0.77600
C136        C  0.30045635  0.69966001  0.89679624     0.84600
C137        C  0.30118282  0.80571192  0.88502242     0.84900
O138        O  0.30455592  0.78527554  0.86308031    -0.80000
O139        O  0.52540465  0.93833823  0.97147582    -0.77500
C140        C  0.44271489  0.94375430  0.99845104     0.83500
O141        O  0.50543661  0.03256537  0.93778571    -0.78600
O142        O  0.44610334  0.01941142  0.05144930    -0.80100
O143        O  0.52889359  0.97473119  0.09814714    -0.79900
O144        O  0.55602421  0.94899898  0.01540403    -0.78500
Zn145      Zn  0.49690828  0.96764197  0.97232819     1.55700
O146        O  0.48355154  0.97918882  0.10426683    -0.79900
Cd147      Cd  0.53656091  0.98246146  0.04095438     1.59700
Cd148      Cd  0.50235980  0.03129393  0.99739530     1.59600
O149        O  0.56237975  0.01606501  0.04059887    -0.79900
O150        O  0.50169250  0.99190001  0.01463000    -1.90400
Cd151      Cd  0.47026191  0.98535583  0.04968068     1.59900
O152        O  0.53696947  0.05084364  0.01978187    -0.79900
O153        O  0.44485358  0.95398465  0.03147034    -0.78500
C154        C  0.50502314  0.01292462  0.91388026     0.84000
C155        C  0.54775320  0.93374123  0.98845204     0.83700
O156        O  0.46024817  0.94887360  0.97247647    -0.77500
C157        C  0.50716269  0.97557008  0.11851793     0.84500
O158        O  0.50157620  0.98828737  0.92437982    -0.77600
C159        C  0.55899761  0.04146924  0.03419029     0.84600
C160        C  0.44699465  0.04343974  0.03787688     0.84900
O161        O  0.46673858  0.05163339  0.01657747    -0.80000
O162        O  0.53950447  0.94650670  0.48116047    -0.77500
C163        C  0.45064499  0.93638150  0.50633133     0.83500
O164        O  0.48739866  0.02476907  0.43228364    -0.78600
O165        O  0.44321596  0.01767635  0.55727912    -0.80100
O166        O  0.52806613  0.99378374  0.60305993    -0.79900
O167        O  0.56280145  0.96810751  0.52623846    -0.78500
Zn168      Zn  0.50267499  0.96554060  0.47860840     1.55700
O169        O  0.48474424  0.97924450  0.60638272    -0.79900
Cd170      Cd  0.53495296  0.99754083  0.54493465     1.59700
Cd171      Cd  0.49178493  0.03033041  0.49053538     1.59600
O172        O  0.55236093  0.03550659  0.53643599    -0.79900
O173        O  0.50003683  0.99454596  0.51600182    -1.90400
Cd174      Cd  0.47004663  0.98543964  0.55252673     1.59900
O175        O  0.52353958  0.05788693  0.49894683    -0.79900
O176        O  0.44770862  0.95202409  0.53487991    -0.78500
C177        C  0.49240072  0.00379003  0.41187757     0.84000
C178        C  0.56123827  0.94988676  0.50046198     0.83700
O179        O  0.47094983  0.93876123  0.48352076    -0.77500
C180        C  0.50728193  0.98550950  0.62205113     0.84500
O181        O  0.49929178  0.98105717  0.42643015    -0.77600
C182        C  0.54550081  0.05681100  0.51810104     0.84600
C183        C  0.44075896  0.04065645  0.54088494     0.84900
O184        O  0.45695804  0.04829775  0.51431368    -0.80000
O185        O  0.80738297  0.77418906  0.33377452    -0.77500
C186        C  0.80036718  0.69101985  0.36989152     0.83500
O187        O  0.71968082  0.75112948  0.28853100    -0.78600
O188        O  0.71698552  0.69850990  0.40899671    -0.80100
O189        O  0.76542735  0.78095377  0.45489209    -0.79900
O190        O  0.79188075  0.80710667  0.37201980    -0.78500
Zn191      Zn  0.77993424  0.74387974  0.33453253     1.55700
O192        O  0.75644259  0.73666531  0.46434458    -0.79900
Cd193      Cd  0.75858164  0.78688587  0.39756831     1.59700
Cd194      Cd  0.71535315  0.75145300  0.34717982     1.59600
O195        O  0.72332516  0.81100428  0.39659892    -0.79900
O196        O  0.75195296  0.75071028  0.37226628    -1.90400
Cd197      Cd  0.75310269  0.72051614  0.41041554     1.59900
O198        O  0.69355552  0.78589927  0.36386277    -0.79900
O199        O  0.78485956  0.69290529  0.39906472    -0.78500
C200        C  0.74075666  0.74637524  0.26796907     0.84000
C201        C  0.80934289  0.79800217  0.34791829     0.83700
O202        O  0.79976972  0.70879540  0.34365205    -0.77500
C203        C  0.76169631  0.76056725  0.47682372     0.84500
O204        O  0.76422303  0.74238477  0.28234747    -0.77600
C205        C  0.69941903  0.80709442  0.38321347     0.84600
C206        C  0.69557840  0.69951316  0.38864458     0.84900
O207        O  0.69234261  0.71764954  0.36322376    -0.80000
O208        O  0.79887005  0.78683976  0.83172314    -0.77500
C209        C  0.80958260  0.69950441  0.84203677     0.83500
O210        O  0.71226688  0.75056789  0.79514005    -0.78600
O211        O  0.72705203  0.68578378  0.89140613    -0.80100
O212        O  0.76692001  0.76042982  0.96158822    -0.79900
O213        O  0.79477807  0.80049786  0.89149347    -0.78500
Zn214      Zn  0.77768833  0.75198158  0.82863998     1.55700
O215        O  0.76803081  0.71532186  0.95249368    -0.79900
Cd216      Cd  0.76148285  0.77637371  0.90806992     1.59700
Cd217      Cd  0.71377824  0.74824085  0.85456229     1.59600
O218        O  0.72813098  0.80163796  0.91223922    -0.79900
O219        O  0.75326746  0.74679473  0.87107506    -1.90400
Cd220      Cd  0.76099565  0.71071700  0.89496838     1.59900
O221        O  0.69449713  0.78253009  0.87872392    -0.79900
O222        O  0.79426411  0.69154426  0.86934508    -0.78500
C223        C  0.73183115  0.75245896  0.77095185     0.84000
C224        C  0.80525514  0.80295024  0.85848083     0.83700
O225        O  0.80543376  0.72192241  0.82491876    -0.77500
C226        C  0.76871395  0.73611151  0.97422593     0.84500
O227        O  0.75677843  0.75299317  0.78097923    -0.77600
C228        C  0.70358301  0.80135883  0.90044152     0.84600
C229        C  0.70184367  0.68982212  0.88431837     0.84900
O230        O  0.69304259  0.71269491  0.87190433    -0.80000
O231        O  0.69620625  0.22395161  0.07786108    -0.77500
C232        C  0.70079604  0.31170317  0.09512218     0.83500
O233        O  0.78613135  0.25008130  0.03532463    -0.78600
O234        O  0.78387013  0.30883081  0.14697655    -0.80100
O235        O  0.73342999  0.23511342  0.20612438    -0.79900
O236        O  0.70473396  0.20003365  0.12986449    -0.78500
Zn237      Zn  0.72255911  0.25505776  0.07668183     1.55700
O238        O  0.73639356  0.28066500  0.20266415    -0.79900
Cd239      Cd  0.73881466  0.22202274  0.15022446     1.59700
Cd240      Cd  0.78677667  0.24955685  0.09490501     1.59600
O241        O  0.77160606  0.19555585  0.15159739    -0.79900
O242        O  0.74862490  0.25397953  0.11704520    -1.90400
Cd243      Cd  0.74587302  0.28920191  0.14643371     1.59900
O244        O  0.80478994  0.21365484  0.11538091    -0.79900
O245        O  0.71657530  0.31576368  0.12323529    -0.78500
C246        C  0.76556339  0.25312396  0.01368553     0.84000
C247        C  0.69101843  0.20399334  0.09971573     0.83700
O248        O  0.70109877  0.28940143  0.07680902    -0.77500
C249        C  0.73341980  0.25870173  0.22171460     0.84500
O250        O  0.74135804  0.25472118  0.02700398    -0.77600
C251        C  0.79578705  0.19504122  0.13768271     0.84600
C252        C  0.80723721  0.30339213  0.13219319     0.84900
O253        O  0.81122459  0.28221349  0.11177555    -0.80000
O254        O  0.69402903  0.21798411  0.58412292    -0.77500
C255        C  0.69430324  0.30682090  0.60222061     0.83500
O256        O  0.78071295  0.24363005  0.53798606    -0.78600
O257        O  0.78140993  0.30822867  0.64366733    -0.80100
O258        O  0.72799323  0.23800561  0.71014366    -0.79900
O259        O  0.70387545  0.19913107  0.63948015    -0.78500
Zn260      Zn  0.71833959  0.25137042  0.58084465     1.55700
O261        O  0.73845687  0.28227562  0.70591881    -0.79900
Cd262      Cd  0.73605630  0.22309702  0.65680299     1.59700
Cd263      Cd  0.78320798  0.24645619  0.59760041     1.59600
O264        O  0.76870198  0.19750078  0.66246715    -0.79900
O265        O  0.74557419  0.25252879  0.62013905    -1.90400
Cd266      Cd  0.74410739  0.28836273  0.64787410     1.59900
O267        O  0.80095552  0.21141112  0.62146036    -0.79900
O268        O  0.71240644  0.31261492  0.62688145    -0.78500
C269        C  0.76012462  0.24675336  0.51624031     0.84000
C270        C  0.69029204  0.19951562  0.60900252     0.83700
O271        O  0.69441483  0.28430609  0.58421959    -0.77500
C272        C  0.73175219  0.26126955  0.72527254     0.84500
O273        O  0.73610177  0.25065025  0.52956542    -0.77600
C274        C  0.79232748  0.19519890  0.64737985     0.84600
C275        C  0.80486764  0.30147896  0.63044444     0.84900
O276        O  0.80866856  0.27919896  0.61225101    -0.80000
O277        O  0.46479544  0.45014401  0.03954672    -0.77500
C278        C  0.55509021  0.45401771  0.02909837     0.83500
O279        O  0.49143577  0.53954002  0.08137269    -0.78600
O280        O  0.55344532  0.53568669  0.97188652    -0.80100
O281        O  0.48233897  0.48687459  0.91254774    -0.79900
O282        O  0.44466898  0.45987213  0.98500508    -0.78500
Zn283      Zn  0.49710029  0.47547974  0.04253942     1.55700
O284        O  0.52790396  0.48664860  0.91821418    -0.79900
Cd285      Cd  0.46733921  0.49330906  0.96671579     1.59700
Cd286      Cd  0.49327103  0.53992611  0.02211631     1.59600
O287        O  0.44003086  0.52550826  0.96444328    -0.79900
O288        O  0.49809826  0.50164798  0.00175615    -1.90400
Cd289      Cd  0.53420268  0.49783768  0.97430272     1.59900
O290        O  0.45729673  0.55783125  0.00187948    -0.79900
O291        O  0.56002598  0.46967388  0.00092078    -0.78500
C292        C  0.49190561  0.51911972  0.10377493     0.84000
C293        C  0.44595218  0.44612216  0.01551645     0.83700
O294        O  0.53189335  0.45389159  0.04582161    -0.77500
C295        C  0.50635144  0.48471374  0.89823479     0.84500
O296        O  0.49377168  0.49478383  0.09148162    -0.77600
C297        C  0.43882422  0.54914264  0.97946565     0.84600
C298        C  0.54748332  0.55950872  0.98422843     0.84900
O299        O  0.52595475  0.56413040  0.00402537    -0.80000
O300        O  0.46751115  0.44836187  0.52873966    -0.77500
C301        C  0.55769791  0.45461606  0.51837205     0.83500
O302        O  0.49524478  0.53359113  0.58757403    -0.78600
O303        O  0.55493837  0.53740201  0.47241482    -0.80100
O304        O  0.48040308  0.49736625  0.41186263    -0.79900
O305        O  0.44406265  0.46685290  0.48137980    -0.78500
Zn306      Zn  0.49959574  0.47359543  0.53799321     1.55700
O307        O  0.52587807  0.49357771  0.41471642    -0.79900
Cd308      Cd  0.46777624  0.50065287  0.46766125     1.59700
Cd309      Cd  0.49877394  0.53956662  0.52926888     1.59600
O310        O  0.44409373  0.53561226  0.46997509    -0.79900
O311        O  0.49993038  0.50349568  0.50208223    -1.90400
Cd312      Cd  0.53413826  0.50096780  0.47093076     1.59900
O313        O  0.46575459  0.56270554  0.51081482    -0.79900
O314        O  0.56056887  0.47173758  0.49154725    -0.78500
C315        C  0.49454919  0.51147407  0.60664348     0.84000
C316        C  0.44713301  0.44838525  0.50637535     0.83700
O317        O  0.53537646  0.45269568  0.53727386    -0.77500
C318        C  0.50376723  0.49441963  0.39596516     0.84500
O319        O  0.49574634  0.48814382  0.59073970    -0.77600
C320        C  0.44653666  0.55831664  0.48735626     0.84600
C321        C  0.55298197  0.55899352  0.49238579     0.84900
O322        O  0.53386962  0.56234247  0.51685851    -0.80000
O323        O  0.02463545  0.56019572  0.28168858    -0.77500
C324        C  0.93996188  0.54755431  0.25851524     0.83500
O325        O  0.00751593  0.46832144  0.32615378    -0.78600
O326        O  0.94962844  0.46622655  0.21129103    -0.80100
O327        O  0.02607831  0.52207079  0.15970546    -0.79900
O328        O  0.05597539  0.54690552  0.23937262    -0.78500
Zn329      Zn  0.99659766  0.53018557  0.28429238     1.55700
O330        O  0.98171088  0.51129942  0.15537473    -0.79900
Cd331      Cd  0.03571966  0.51350250  0.21552169     1.59700
Cd332      Cd  0.00588891  0.46587771  0.26730000     1.59600
O333        O  0.06175359  0.48027770  0.21232017    -0.79900
O334        O  0.00182235  0.50339325  0.24477339    -1.90400
Cd335      Cd  0.96931158  0.50382764  0.21067555     1.59900
O336        O  0.04137900  0.44729725  0.24611957    -0.79900
O337        O  0.94081396  0.53307332  0.22846633    -0.78500
C338        C  0.00487215  0.48901412  0.34784951     0.84000
C339        C  0.04740408  0.56365057  0.26454357     0.83700
O340        O  0.95944721  0.54742083  0.28219189    -0.77500
C341        C  0.00447705  0.51849612  0.14029777     0.84500
O342        O  0.00062771  0.51286111  0.33489272    -0.77600
C343        C  0.06085983  0.45585693  0.22474627     0.84600
C344        C  0.95295776  0.44416753  0.22988482     0.84900
O345        O  0.97261380  0.44117940  0.25306737    -0.80000
O346        O  0.03645089  0.55020027  0.78164443    -0.77500
C347        C  0.94998283  0.55422792  0.75408834     0.83500
O348        O  0.99315423  0.46544047  0.82688148    -0.78600
O349        O  0.94485354  0.47422047  0.70495406    -0.80100
O350        O  0.03287435  0.50916751  0.66078995    -0.79900
O351        O  0.06394973  0.53020639  0.73940593    -0.78500
Zn352      Zn  0.00200800  0.52724861  0.78277748     1.55700
O353        O  0.98755707  0.51194098  0.65381995    -0.79900
Cd354      Cd  0.03805928  0.50028867  0.71741049     1.59700
Cd355      Cd  0.99508572  0.46193165  0.76776117     1.59600
O356        O  0.05589379  0.46195445  0.71872053    -0.79900
O357        O  0.00184217  0.49898135  0.74444672    -1.90400
Cd358      Cd  0.97197397  0.50634427  0.70774085     1.59900
O359        O  0.02697541  0.43602255  0.75264922    -0.79900
O360        O  0.94865547  0.53930541  0.72465891    -0.78500
C361        C  0.99599063  0.48653550  0.84782917     0.84000
C362        C  0.05933452  0.54872172  0.76408185     0.83700
O363        O  0.96919292  0.55174652  0.77798941    -0.77500
C364        C  0.01185124  0.51225728  0.64021592     0.84500
O365        O  0.99973146  0.51020783  0.83382452    -0.77600
C366        C  0.04875898  0.43896927  0.73281324     0.84600
C367        C  0.94231297  0.45139566  0.72177382     0.84900
O368        O  0.95922292  0.44359531  0.74694339    -0.80000
C369        C  0.00772391  0.50565089  0.45396720     0.19700
C370        C  0.02173154  0.52519838  0.47551391    -0.18400
C371        C  0.01858513  0.52596936  0.51483867    -0.10700
C372        C  0.00098650  0.50737583  0.53321630     0.21900
C373        C  0.98675104  0.48803122  0.51163864    -0.20000
C374        C  0.99021334  0.48699599  0.47237651    -0.10900
C375        C  0.99643757  0.50802163  0.57465149    -0.15000
C376        C  0.01602645  0.51529474  0.59914879    -0.28900
C377        C  0.00965162  0.50705433  0.41222287    -0.03200
C378        C  0.00609427  0.48540864  0.38922681    -0.39700
H379        H  0.03492685  0.54009802  0.46180247     0.13100
H380        H  0.02931210  0.54157711  0.53060798     0.12700
H381        H  0.97287348  0.47369429  0.52522870     0.12100
H382        H  0.97844571  0.47225379  0.45645390     0.12400
H383        H  0.97707491  0.50006552  0.58547853     0.15100
H384        H  0.03632825  0.52091344  0.58893827     0.13900
H385        H  0.01404233  0.52695573  0.39991341     0.11600
H386        H  0.00370625  0.46499646  0.40080182     0.13600
C387        C  0.99161909  0.50923561  0.03366439     0.19700
C388        C  0.97886691  0.48806835  0.01352266    -0.18400
C389        C  0.98178589  0.48609678  0.97417997    -0.10700
C390        C  0.99742946  0.50550758  0.95409528     0.21900
C391        C  0.00979947  0.52694044  0.97421276    -0.20000
C392        C  0.00700898  0.52881399  0.01354386    -0.10900
C393        C  0.99992023  0.50541527  0.91214789    -0.15000
C394        C  0.99455765  0.48382765  0.88953351    -0.28900
C395        C  0.98814110  0.51025646  0.07546853    -0.03200
C396        C  0.00654218  0.52172135  0.09881412    -0.39700
H397        H  0.96665587  0.47288785  0.02834401     0.13100
H398        H  0.97125043  0.46975350  0.95972881     0.12700
H399        H  0.02157109  0.54245469  0.95937480     0.12100
H400        H  0.01648118  0.54587227  0.02788374     0.12400
H401        H  0.00668261  0.52443634  0.89919222     0.15100
H402        H  0.98905708  0.46412015  0.90138855     0.13900
H403        H  0.97092620  0.49908078  0.08766051     0.11600
H404        H  0.02499172  0.53115927  0.08741630     0.13600
C405        C  0.49624474  0.49073829  0.71175228     0.19700
C406        C  0.51346318  0.47334876  0.73224824    -0.18400
C407        C  0.51150555  0.47192527  0.77172364    -0.10700
C408        C  0.49191583  0.48765460  0.79139121     0.21900
C409        C  0.47427858  0.50454446  0.77076039    -0.20000
C410        C  0.47650400  0.50625704  0.73136105    -0.10900
C411        C  0.48885881  0.48680820  0.83320974    -0.15000
C412        C  0.50952413  0.48109127  0.85690130    -0.28900
C413        C  0.49828820  0.49090794  0.66988057    -0.03200
C414        C  0.49235385  0.51278308  0.64834413    -0.39700
H415        H  0.52852507  0.46084620  0.71762907     0.13100
H416        H  0.52493935  0.45812966  0.78657154     0.12700
H417        H  0.45879626  0.51661525  0.78523899     0.12100
H418        H  0.46236114  0.51921090  0.71630133     0.12400
H419        H  0.46932273  0.49345546  0.84503752     0.15100
H420        H  0.52979277  0.47636181  0.84581566     0.13900
H421        H  0.50596714  0.47244794  0.65633656     0.11600
H422        H  0.48664369  0.53206447  0.66142449     0.13600
C423        C  0.48826138  0.50172610  0.29012876     0.19700
C424        C  0.47403398  0.52150712  0.26936599    -0.18400
C425        C  0.47645151  0.52250384  0.22987646    -0.10700
C426        C  0.49294407  0.50341600  0.21056214     0.21900
C427        C  0.50669222  0.48334841  0.23134687    -0.20000
C428        C  0.50446384  0.48249736  0.27068114    -0.10900
C429        C  0.49488350  0.50219447  0.16877890    -0.15000
C430        C  0.49019669  0.52327750  0.14518106    -0.28900
C431        C  0.48552412  0.50130585  0.33191588    -0.03200
C432        C  0.50573264  0.49255293  0.35447581    -0.39700
H433        H  0.46113257  0.53630519  0.28377529     0.13100
H434        H  0.46491260  0.53771237  0.21464371     0.12700
H435        H  0.51912087  0.46810286  0.21703172     0.12100
H436        H  0.51498753  0.46641659  0.28563649     0.12400
H437        H  0.50112723  0.48265302  0.15685453     0.15100
H438        H  0.48546754  0.54347853  0.15607731     0.13900
H439        H  0.46714218  0.51012911  0.34450843     0.11600
H440        H  0.52512549  0.48588792  0.34234619     0.13600
C441        C  0.89425717  0.39030233  0.70176596     0.19700
C442        C  0.89905736  0.36359218  0.68881962    -0.18400
C443        C  0.87759451  0.34764357  0.67458214    -0.10700
C444        C  0.85071786  0.35804403  0.67343991     0.21900
C445        C  0.84585864  0.38451300  0.68731779    -0.20000
C446        C  0.86733076  0.40052366  0.70114809    -0.10900
C447        C  0.82691250  0.34139262  0.66075106    -0.15000
C448        C  0.82881480  0.31929402  0.63798504    -0.28900
C449        C  0.91755567  0.40701243  0.71598919    -0.03200
C450        C  0.91864397  0.43424000  0.71107473    -0.39700
H451        H  0.91953962  0.35511817  0.68943812     0.13100
H452        H  0.88208268  0.32703495  0.66542248     0.12700
H453        H  0.82530073  0.39284590  0.68754575     0.12100
H454        H  0.86270260  0.42071255  0.71195178     0.12400
H455        H  0.80681826  0.34755494  0.67117752     0.15100
H456        H  0.84848144  0.31320732  0.62617572     0.13900
H457        H  0.93501404  0.39654930  0.72810856     0.11600
H458        H  0.90231285  0.44434672  0.69584780     0.13600
C459        C  0.60440119  0.40289157  0.56868707     0.19700
C460        C  0.59971329  0.37718121  0.58492997    -0.18400
C461        C  0.62162450  0.36094285  0.59626213    -0.10700
C462        C  0.64875076  0.37028332  0.59208218     0.21900
C463        C  0.65348105  0.39648722  0.57737117    -0.20000
C464        C  0.63151179  0.41261846  0.56542942    -0.06100
C465        C  0.67217278  0.35258069  0.60228771    -0.15000
C466        C  0.67180202  0.32581680  0.59397992    -0.28900
C467        C  0.58045840  0.41937757  0.55697525    -0.03200
C468        C  0.58140201  0.43739808  0.52828896    -0.39700
H469        H  0.57901488  0.36946867  0.58837876     0.13100
H470        H  0.61733185  0.34108593  0.60845998     0.12700
H471        H  0.67420665  0.40420777  0.57434960     0.12100
H472        H  0.63576258  0.43275922  0.55418650     0.12400
H473        H  0.69038389  0.36178808  0.61435837     0.15100
H474        H  0.65445292  0.31741359  0.57878403     0.13900
H475        H  0.56115974  0.41591180  0.57185125     0.11600
H476        H  0.60021144  0.44008694  0.51202082     0.13600
C477        C  0.74834151  0.26654228  0.90865488     0.19700
C478        C  0.72324576  0.26617851  0.88954015    -0.18400
C479        C  0.72220857  0.27055481  0.85059836    -0.10700
C480        C  0.74633451  0.27553592  0.82974882     0.21900
C481        C  0.77137694  0.27704422  0.84893045    -0.20000
C482        C  0.77246643  0.27240671  0.88806414    -0.10900
C483        C  0.74587022  0.27822184  0.78790969    -0.15000
C484        C  0.72886332  0.26307489  0.76668495    -0.28900
C485        C  0.74769618  0.26193702  0.95018446    -0.03200
C486        C  0.76938246  0.25588800  0.97214769    -0.39700
H487        H  0.70426376  0.26225592  0.90479379     0.13100
H488        H  0.70249015  0.27005318  0.83685765     0.12700
H489        H  0.79020639  0.28116580  0.83344318     0.12100
H490        H  0.79206830  0.27366586  0.90194481     0.12400
H491        H  0.76176184  0.29034059  0.77411471     0.15100
H492        H  0.71506926  0.24856910  0.78026866     0.13900
H493        H  0.72756591  0.26347987  0.96347864     0.11600
H494        H  0.78978308  0.25366367  0.96008900     0.13600
C495        C  0.74398759  0.25021538  0.40883312     0.19700
C496        C  0.72469242  0.26517119  0.38811056    -0.18400
C497        C  0.72322611  0.26274556  0.34871037    -0.10700
C498        C  0.74099054  0.24505879  0.32894198     0.21900
C499        C  0.76014877  0.22988309  0.34964876    -0.20000
C500        C  0.76179109  0.23250797  0.38913255    -0.10900
C501        C  0.73972840  0.24153841  0.28702123    -0.15000
C502        C  0.73088711  0.26118370  0.26336774    -0.28900
C503        C  0.74315951  0.25219143  0.45096061    -0.03200
C504        C  0.76381579  0.24543368  0.47441257    -0.39700
H505        H  0.71042642  0.27865431  0.40256473     0.13100
H506        H  0.70769144  0.27423794  0.33404066     0.12700
H507        H  0.77392267  0.21591050  0.33519010     0.12100
H508        H  0.77643425  0.22009997  0.40410586     0.12400
H509        H  0.74835212  0.22295088  0.27500122     0.15100
H510        H  0.72457034  0.28085526  0.27460470     0.13900
H511        H  0.72424334  0.26000693  0.46333510     0.11600
H512        H  0.78349958  0.23895113  0.46305407     0.13600
C513        C  0.85488578  0.35882427  0.17422759     0.19700
C514        C  0.86032796  0.36765886  0.21127304    -0.18400
C515        C  0.88125058  0.38661164  0.21828948    -0.10700
C516        C  0.89680719  0.39753804  0.18818357     0.21900
C517        C  0.89129602  0.38882164  0.15116757    -0.20000
C518        C  0.87076312  0.36949569  0.14422214    -0.10900
C519        C  0.91730091  0.41960335  0.19405789    -0.15000
C520        C  0.93328513  0.42139338  0.22483474    -0.28900
C521        C  0.83149557  0.33985830  0.16755301    -0.03200
C522        C  0.83067941  0.32209399  0.13839979    -0.39700
H523        H  0.84819501  0.36001385  0.23483926     0.13100
H524        H  0.88454719  0.39342358  0.24705370     0.12700
H525        H  0.90276943  0.39721770  0.12746869     0.12100
H526        H  0.86672835  0.36373853  0.11522740     0.12400
H527        H  0.91993424  0.43445990  0.17146199     0.15100
H528        H  0.93246252  0.40550025  0.24624202     0.13900
H529        H  0.81479427  0.33986659  0.18814823     0.11600
H530        H  0.84819796  0.32026637  0.11937702     0.13600
C531        C  0.66014238  0.37817332  0.07936220     0.19700
C532        C  0.64392883  0.39503792  0.10251997    -0.18400
C533        C  0.62501278  0.41302776  0.08649856    -0.10700
C534        C  0.62234915  0.41482496  0.04690365     0.21900
C535        C  0.63968389  0.39910329  0.02374804    -0.20000
C536        C  0.65823838  0.38078151  0.03975438    -0.10900
C537        C  0.60160581  0.43289331  0.02927487    -0.15000
C538        C  0.57646065  0.43591951  0.04456431    -0.28900
C539        C  0.67868867  0.35775594  0.09679519    -0.03200
C540        C  0.68197455  0.33293348  0.08122111    -0.39700
H541        H  0.64535514  0.39373103  0.13304260     0.13100
H542        H  0.61250183  0.42554773  0.10508928     0.12700
H543        H  0.63834812  0.40047253  0.99321928     0.12100
H544        H  0.67110929  0.36866580  0.02110489     0.12400
H545        H  0.60660034  0.44269885  0.00249794     0.15100
H546        H  0.57112229  0.42459252  0.07004055     0.13900
H547        H  0.68873274  0.36271891  0.12323410     0.11600
H548        H  0.67035382  0.32774841  0.05611624     0.13600
C549        C  0.85935681  0.64008333  0.82482705     0.19700
C550        C  0.85551765  0.61295521  0.81329290    -0.18400
C551        C  0.87781055  0.59729507  0.80100634    -0.10700
C552        C  0.90440368  0.60840702  0.80088927     0.21900
C553        C  0.90834988  0.63528011  0.81336484    -0.20000
C554        C  0.88598531  0.65114340  0.82482938    -0.10900
C555        C  0.92840764  0.59166393  0.79020003    -0.15000
C556        C  0.92767040  0.57376778  0.76141229    -0.28900
C557        C  0.83545635  0.65627978  0.83773660    -0.03200
C558        C  0.83320246  0.68296473  0.82975686    -0.39700
H559        H  0.83521263  0.60396393  0.81352867     0.13100
H560        H  0.87435160  0.57631324  0.79253020     0.12700
H561        H  0.92875456  0.64401623  0.81407709     0.12100
H562        H  0.88960183  0.67181867  0.83450453     0.12400
H563        H  0.94704876  0.59415553  0.80643250     0.15100
H564        H  0.90961307  0.57255402  0.74373632     0.13900
H565        H  0.81877727  0.64578034  0.85228718     0.11600
H566        H  0.84876657  0.69290499  0.81236351     0.13600
C567        C  0.60341451  0.60406722  0.93566354     0.19700
C568        C  0.62764614  0.59819049  0.91552357    -0.18400
C569        C  0.64442837  0.61917491  0.90169722    -0.10700
C570        C  0.63742442  0.64673142  0.90780991     0.21900
C571        C  0.61274823  0.65267367  0.92683379    -0.20000
C572        C  0.59592301  0.63164369  0.94071784    -0.10900
C573        C  0.65552676  0.66962333  0.89518889    -0.15000
C574        C  0.68288093  0.66685244  0.89185561    -0.28900
C575        C  0.58614161  0.58077232  0.94907666    -0.03200
C576        C  0.56545822  0.58292827  0.97449978    -0.39700
H577        H  0.63367687  0.57719692  0.91045155     0.13100
H578        H  0.66270917  0.61364840  0.88592500     0.12700
H579        H  0.60664141  0.67369541  0.93144261     0.12100
H580        H  0.57700783  0.63722786  0.95485488     0.12400
H581        H  0.64647360  0.68972537  0.89169242     0.15100
H582        H  0.69231654  0.64735344  0.89821343     0.13900
H583        H  0.59066879  0.56078659  0.93712296     0.11600
H584        H  0.56071113  0.60240323  0.98761528     0.13600
C585        C  0.74427713  0.76026188  0.66360314     0.19700
C586        C  0.76340900  0.77531165  0.64219531    -0.18400
C587        C  0.76552234  0.77188104  0.60304052    -0.10700
C588        C  0.74841301  0.75322476  0.58427231     0.21900
C589        C  0.72901426  0.73839842  0.60562956    -0.20000
C590        C  0.72686659  0.74188562  0.64489075    -0.10900
C591        C  0.75071849  0.74796175  0.54287448    -0.15000
C592        C  0.76248504  0.76538920  0.51804450    -0.28900
C593        C  0.74563974  0.76206521  0.70546105    -0.03200
C594        C  0.72601078  0.75357579  0.72995603    -0.39700
H595        H  0.77735271  0.78930938  0.65599852     0.13100
H596        H  0.78122031  0.78322891  0.58802339     0.12700
H597        H  0.71570174  0.72375345  0.59193347     0.12100
H598        H  0.71236110  0.72940419  0.66049154     0.12400
H599        H  0.74096758  0.72957246  0.53212630     0.15100
H600        H  0.77064104  0.78482121  0.52749659     0.13900
H601        H  0.76457205  0.77030548  0.71681548     0.11600
H602        H  0.70611182  0.74690927  0.72007608     0.13600
C603        C  0.75837314  0.74074908  0.16153280     0.19700
C604        C  0.77610685  0.72424467  0.13992259    -0.18400
C605        C  0.77764943  0.72701968  0.10054992    -0.10700
C606        C  0.76159202  0.74662957  0.08202169     0.21900
C607        C  0.74404122  0.76327797  0.10368387    -0.20000
C608        C  0.74232053  0.76033774  0.14298384    -0.10900
C609        C  0.76311720  0.75101887  0.04046243    -0.15000
C610        C  0.77061144  0.73157689  0.01543513    -0.28900
C611        C  0.75889559  0.73857956  0.20343029    -0.03200
C612        C  0.73804621  0.74628263  0.22634906    -0.39700
H613        H  0.78903240  0.70933269  0.15361836     0.13100
H614        H  0.79196224  0.71431751  0.08496835     0.12700
H615        H  0.73168458  0.77873762  0.09014233     0.12100
H616        H  0.72908908  0.77404616  0.15874402     0.12400
H617        H  0.75596780  0.77057024  0.02988197     0.15100
H618        H  0.77583714  0.71122115  0.02507085     0.13900
H619        H  0.77739795  0.73033697  0.21589270     0.11600
H620        H  0.71875297  0.75299438  0.21455356     0.13600
C621        C  0.89001103  0.59799125  0.30752342     0.19700
C622        C  0.88292150  0.60369863  0.34538319    -0.18400
C623        C  0.86382274  0.62411314  0.35433759    -0.10700
C624        C  0.85154441  0.63941648  0.32542604     0.21900
C625        C  0.85855670  0.63355540  0.28761169    -0.20000
C626        C  0.87749409  0.61310507  0.27868216    -0.10900
C627        C  0.83257082  0.66261718  0.33293069    -0.15000
C628        C  0.81929585  0.66750147  0.36596124    -0.28900
C629        C  0.91216444  0.57791397  0.29943986    -0.03200
C630        C  0.91600287  0.56536129  0.26576333    -0.39700
H631        H  0.89254338  0.59260092  0.36817510     0.13100
H632        H  0.85947454  0.62830483  0.38384331     0.12700
H633        H  0.84964616  0.64518898  0.26477011     0.12100
H634        H  0.88294466  0.60997970  0.24924960     0.12400
H635        H  0.82882329  0.67618399  0.30920976     0.15100
H636        H  0.82138285  0.65376472  0.38980766     0.13900
H637        H  0.92609145  0.57340665  0.32241467     0.11600
H638        H  0.90148033  0.56809715  0.24304494     0.13600
C639        C  0.61057619  0.60296180  0.44866639     0.19700
C640        C  0.61791056  0.60903512  0.41108823    -0.18400
C641        C  0.63779302  0.62884002  0.40307138    -0.10700
C642        C  0.65100318  0.64266201  0.43266054     0.21900
C643        C  0.64411910  0.63612800  0.47022755    -0.20000
C644        C  0.62396420  0.61660449  0.47823698    -0.10900
C645        C  0.67289791  0.66304588  0.42541842    -0.15000
C646        C  0.67369478  0.67908685  0.39453086    -0.28900
C647        C  0.58992265  0.58135451  0.45598664    -0.03200
C648        C  0.57344756  0.58088123  0.48680720    -0.39700
H649        H  0.60818476  0.59843144  0.38785728     0.13100
H650        H  0.64323016  0.63278257  0.37380804     0.12700
H651        H  0.65435479  0.64621614  0.49346665     0.12100
H652        H  0.61941787  0.61177940  0.50751669     0.12400
H653        H  0.68821912  0.66579511  0.44722548     0.15100
H654        H  0.65744920  0.67800501  0.37380695     0.13900
H655        H  0.58742466  0.56583169  0.43424323     0.11600
H656        H  0.57419229  0.59728723  0.50747571     0.13600
C657        C  0.65570922  0.86520165  0.42791709     0.19700
C658        C  0.65576207  0.87804045  0.46352934    -0.18400
C659        C  0.63388114  0.89469035  0.47520103    -0.10700
C660        C  0.61144375  0.89914095  0.45119431     0.21900
C661        C  0.61170622  0.88670992  0.41532169    -0.20000
C662        C  0.63353495  0.87009779  0.40369470    -0.10900
C663        C  0.58710336  0.91598330  0.46215586    -0.15000
C664        C  0.58566349  0.93273006  0.49249025    -0.28900
C665        C  0.67900418  0.84687891  0.41720125    -0.03200
C666        C  0.67721744  0.82706022  0.39074180    -0.39700
H667        H  0.67259463  0.87475802  0.48274815     0.13100
H668        H  0.63457593  0.90349458  0.50322811     0.12700
H669        H  0.59488689  0.88988863  0.39604360     0.12100
H670        H  0.63295296  0.86141162  0.37556871     0.12400
H671        H  0.56959507  0.91507796  0.44341497     0.15100
H672        H  0.60304117  0.93511642  0.51105661     0.13900
H673        H  0.69772939  0.84860337  0.43343702     0.11600
H674        H  0.65812766  0.82376658  0.37596318     0.13600
C675        C  0.60386277  0.10617744  0.54638053     0.19700
C676        C  0.62715437  0.10297498  0.56892853    -0.18400
C677        C  0.64416990  0.12512741  0.57684960    -0.10700
C678        C  0.63820927  0.15119210  0.56249768     0.21900
C679        C  0.61539714  0.15439142  0.53911003    -0.20000
C680        C  0.59822420  0.13219677  0.53127626    -0.10900
C681        C  0.65605388  0.17504367  0.57037958    -0.15000
C682        C  0.67050364  0.17729566  0.60245088    -0.28900
C683        C  0.58603969  0.08185817  0.54060768    -0.03200
C684        C  0.56312991  0.08135199  0.51966631    -0.39700
H685        H  0.63221765  0.08319077  0.58065312     0.13100
H686        H  0.66218025  0.12163180  0.59377192     0.12700
H687        H  0.61062485  0.17422601  0.52732482     0.12100
H688        H  0.58062737  0.13580276  0.51371718     0.12400
H689        H  0.65712982  0.19122640  0.54937304     0.15100
H690        H  0.66841398  0.16193381  0.62444519     0.13900
H691        H  0.59189871  0.06332024  0.55536649     0.11600
H692        H  0.55646137  0.09919824  0.50422552     0.13600
C693        C  0.52278437  0.99890488  0.72696233     0.19700
C694        C  0.52573573  0.02321949  0.74774957    -0.18400
C695        C  0.52198273  0.02336587  0.78722450    -0.10700
C696        C  0.51557671  0.99898365  0.80653574     0.21900
C697        C  0.51378146  0.97460157  0.78566626    -0.20000
C698        C  0.51734377  0.97450993  0.74647976    -0.10900
C699        C  0.51098768  0.99721687  0.84818363    -0.15000
C700        C  0.50918010  0.01831636  0.87282827    -0.28900
C701        C  0.52465731  0.99934480  0.68495402    -0.03200
C702        C  0.50856105  0.98328112  0.66358323    -0.39700
H703        H  0.53023833  0.04224034  0.73329978     0.13100
H704        H  0.52408494  0.04249564  0.80222438     0.12700
H705        H  0.50933784  0.95540945  0.79972997     0.12100
H706        H  0.51580840  0.95527398  0.73149003     0.12400
H707        H  0.50874780  0.97661949  0.85928258     0.15100
H708        H  0.51113196  0.03928989  0.86334653     0.13900
H709        H  0.53752437  0.01471088  0.67142810     0.11600
H710        H  0.49363545  0.96993786  0.67717961     0.13600
C711        C  0.49225506  0.98287682  0.22560437     0.19700
C712        C  0.47618956  0.00151669  0.24637238    -0.18400
C713        C  0.47765354  0.00266285  0.28589029    -0.10700
C714        C  0.49514978  0.98494320  0.30550941     0.21900
C715        C  0.51077859  0.96593644  0.28477187    -0.20000
C716        C  0.50947742  0.96493890  0.24527283    -0.10900
C717        C  0.49683953  0.98460774  0.34749208    -0.15000
C718        C  0.49002115  0.00576219  0.37022404    -0.28900
C719        C  0.48981841  0.98225550  0.18369373    -0.03200
C720        C  0.50970959  0.97322553  0.16005602    -0.39700
H721        H  0.46246540  0.01530710  0.23193200     0.13100
H722        H  0.46464324  0.01700609  0.30085659     0.12700
H723        H  0.52408277  0.95174504  0.29922718     0.12100
H724        H  0.52153688  0.94973542  0.23042388     0.12400
H725        H  0.50494308  0.96612867  0.36019594     0.15100
H726        H  0.48310174  0.02494248  0.35834427     0.13900
H727        H  0.47148018  0.99121787  0.17171454     0.11600
H728        H  0.52909166  0.96615129  0.17114857     0.13600
C729        C  0.60795601  0.88615130  0.96291575     0.19700
C730        C  0.63536802  0.89189679  0.95377890    -0.18400
C731        C  0.65174164  0.87240134  0.93558302    -0.10700
C732        C  0.64122266  0.84631050  0.92693919     0.21900
C733        C  0.61371548  0.84061883  0.93587515    -0.20000
C734        C  0.59724870  0.86024095  0.95383704    -0.10900
C735        C  0.65850316  0.82452711  0.90940130    -0.15000
C736        C  0.68582906  0.82385039  0.91369026    -0.28900
C737        C  0.59108798  0.90779286  0.98130124    -0.03200
C738        C  0.56408688  0.91019254  0.97519202    -0.39700
H739        H  0.64401864  0.91176525  0.96010827     0.13100
H740        H  0.67250564  0.87807261  0.92802143     0.12700
H741        H  0.60507804  0.82073629  0.92958632     0.12100
H742        H  0.57633163  0.85489266  0.96111031     0.12400
H743        H  0.64837994  0.80766889  0.89513240     0.15100
H744        H  0.69585792  0.83959146  0.93020629     0.13900
H745        H  0.60154897  0.92362089  0.99725351     0.11600
H746        H  0.55391972  0.89577645  0.95661418     0.13600
C747        C  0.64108216  0.14263466  0.09014342     0.19700
C748        C  0.64316836  0.11449615  0.09700297    -0.18400
C749        C  0.62331943  0.09629223  0.08355493    -0.10700
C750        C  0.60073853  0.10583702  0.06276233     0.21900
C751        C  0.59829214  0.13407909  0.05680696    -0.20000
C752        C  0.61812545  0.15227182  0.07028822    -0.10900
C753        C  0.57874310  0.08731995  0.04837494    -0.15000
C754        C  0.58160686  0.06004528  0.04497840    -0.28900
C755        C  0.66297357  0.16128503  0.10439109    -0.03200
C756        C  0.66840353  0.18563835  0.08837212    -0.39700
H757        H  0.66034201  0.10651194  0.11269928     0.13100
H758        H  0.62567339  0.07490544  0.09024937     0.12700
H759        H  0.58090116  0.14214987  0.04165236     0.12100
H760        H  0.61506129  0.17386857  0.06556659     0.12400
H761        H  0.55936172  0.09652473  0.04052024     0.15100
H762        H  0.60088990  0.05041396  0.05189083     0.13900
H763        H  0.67596986  0.15411713  0.12710596     0.11600
H764        H  0.65676407  0.19209485  0.06396420     0.13600
C765        C  0.13777508  0.65018468  0.82701532     0.19700
C766        C  0.13375342  0.64182231  0.78942423    -0.18400
C767        C  0.11539893  0.62072326  0.78090870    -0.10700
C768        C  0.10031151  0.60776034  0.80990000     0.21900
C769        C  0.10390727  0.61650701  0.84741724    -0.20000
C770        C  0.12257683  0.63733601  0.85599903    -0.10900
C771        C  0.07949239  0.58632133  0.80179965    -0.15000
C772        C  0.08099935  0.56916276  0.77194093    -0.28900
C773        C  0.15711329  0.67304993  0.83462914    -0.03200
C774        C  0.17094871  0.67599386  0.86724203    -0.39700
H775        H  0.14490477  0.65165735  0.76650953     0.13100
H776        H  0.11254470  0.61514473  0.75156787     0.12700
H777        H  0.09218416  0.60718218  0.87020316     0.12100
H778        H  0.12453696  0.64375960  0.88515846     0.12400
H779        H  0.06259844  0.58415064  0.82187182     0.15100
H780        H  0.09866341  0.56978840  0.75302615     0.13900
H781        H  0.16131418  0.68715188  0.81152789     0.11600
H782        H  0.16865454  0.66094866  0.88960347     0.13600
C783        C  0.39006251  0.61048269  0.96515391     0.19700
C784        C  0.39454055  0.63752054  0.95342086    -0.18400
C785        C  0.37266455  0.65389479  0.94176825    -0.10700
C786        C  0.34566591  0.64366513  0.94217917     0.21900
C787        C  0.34109744  0.61692433  0.95517486    -0.20000
C788        C  0.36302760  0.60040618  0.96624911    -0.10900
C789        C  0.32179517  0.66081412  0.93118345    -0.15000
C790        C  0.32356213  0.68111969  0.90551542    -0.28900
C791        C  0.41385047  0.59344269  0.97663005    -0.03200
C792        C  0.41486728  0.56634439  0.97025200    -0.39700
H793        H  0.41510207  0.64591227  0.95287209     0.13100
H794        H  0.37691248  0.67470727  0.93323414     0.12700
H795        H  0.32047512  0.60871486  0.95651942     0.12100
H796        H  0.35872720  0.57993233  0.97623127     0.12400
H797        H  0.30206443  0.65627244  0.94428683     0.15100
H798        H  0.34285485  0.68483849  0.89081353     0.13900
H799        H  0.43166049  0.60370302  0.98825072     0.11600
H800        H  0.39797380  0.55641483  0.95588400     0.13600
C801        C  0.39111712  0.89779467  0.94530786     0.19700
C802        C  0.39251937  0.88234853  0.91181756    -0.18400
C803        C  0.37063579  0.86569135  0.90092189    -0.10700
C804        C  0.34670783  0.86412839  0.92344277     0.21900
C805        C  0.34503312  0.88019662  0.95633890    -0.20000
C806        C  0.36689256  0.89684126  0.96721018    -0.10900
C807        C  0.32309498  0.84605220  0.91423642    -0.15000
C808        C  0.32412790  0.82522047  0.88927895    -0.28900
C809        C  0.41492368  0.91528751  0.95546991    -0.03200
C810        C  0.41911133  0.92580730  0.99024018    -0.39700
H811        H  0.41072829  0.88307210  0.89401634     0.13100
H812        H  0.37264301  0.85437585  0.87477868     0.12700
H813        H  0.32673536  0.87972837  0.97397822     0.12100
H814        H  0.36443147  0.90910227  0.99245916     0.12400
H815        H  0.30436146  0.84903712  0.93065220     0.15100
H816        H  0.34272116  0.82098384  0.87329396     0.13900
H817        H  0.42996055  0.91934131  0.93324092     0.11600
H818        H  0.40505564  0.92139479  0.01341037     0.13600
C819        C  0.23407780  0.74808995  0.67015756     0.19700
C820        C  0.21815876  0.76580966  0.64835150    -0.18400
C821        C  0.21747586  0.76308854  0.60902332    -0.10700
C822        C  0.23250606  0.74227905  0.59085403     0.21900
C823        C  0.24768312  0.72399132  0.61282769    -0.20000
C824        C  0.24865605  0.72694928  0.65212895    -0.10900
C825        C  0.23277214  0.73904246  0.54915336    -0.15000
C826        C  0.23022961  0.76031857  0.52543400    -0.28900
C827        C  0.23379028  0.75119915  0.71177063    -0.03200
C828        C  0.25532572  0.74502657  0.73363421    -0.39700
H829        H  0.20633818  0.78191449  0.66180271     0.13100
H830        H  0.20486573  0.77700892  0.59306333     0.12700
H831        H  0.25910595  0.70756935  0.59947740     0.12100
H832        H  0.26036804  0.71240802  0.66836269     0.12400
H833        H  0.23746995  0.71894512  0.53768828     0.15100
H834        H  0.22769771  0.78085240  0.53657690     0.13900
H835        H  0.21537999  0.75971186  0.72472378     0.11600
H836        H  0.27455576  0.73841586  0.72090957     0.13600
C837        C  0.24008597  0.74258279  0.09107896     0.19700
C838        C  0.25858548  0.72686483  0.11198642    -0.18400
C839        C  0.25998767  0.72963542  0.15133014    -0.10700
C840        C  0.24256819  0.74800938  0.17043903     0.21900
C841        C  0.22361108  0.76318753  0.14958444    -0.20000
C842        C  0.22241438  0.76063470  0.11030090    -0.10900
C843        C  0.24208884  0.75061164  0.21218208    -0.15000
C844        C  0.26348834  0.74510578  0.23473217    -0.28900
C845        C  0.23947410  0.73948641  0.04938332    -0.03200
C846        C  0.23294552  0.76017208  0.02616195    -0.39700
H847        H  0.27214101  0.71254542  0.09777658     0.13100
H848        H  0.27420161  0.71695865  0.16665880     0.12700
H849        H  0.20960754  0.77708029  0.16378962     0.12100
H850        H  0.20731349  0.77242001  0.09520754     0.12400
H851        H  0.22309246  0.75798065  0.22487436     0.15100
H852        H  0.28317627  0.73918594  0.22275998     0.13900
H853        H  0.24660477  0.72027972  0.03736310     0.11600
H854        H  0.22802271  0.78016064  0.03771379     0.13600
C855        C  0.10723876  0.61262500  0.28511650     0.19700
C856        C  0.13309336  0.60806608  0.30088523    -0.18400
C857        C  0.14830345  0.62982412  0.31558922    -0.10700
C858        C  0.13811448  0.65667162  0.31407329     0.21900
C859        C  0.11268607  0.66134399  0.29715519    -0.20000
C860        C  0.09722625  0.63952790  0.28316231    -0.10900
C861        C  0.15456445  0.68025828  0.32732202    -0.15000
C862        C  0.17110264  0.67886293  0.35750447    -0.28900
C863        C  0.09112572  0.58905378  0.27086261    -0.03200
C864        C  0.06374559  0.58786498  0.27491920    -0.39700
H865        H  0.14136922  0.58756946  0.30227186     0.13100
H866        H  0.16828355  0.62570145  0.32730974     0.12700
H867        H  0.10471213  0.68191995  0.29496007     0.12100
H868        H  0.07766633  0.64377951  0.27026755     0.12400
H869        H  0.15318973  0.69920005  0.31143769     0.15100
H870        H  0.17139037  0.66045052  0.37463434     0.13900
H871        H  0.10211190  0.57141672  0.25980864     0.11600
H872        H  0.05303587  0.60438837  0.28930950     0.13600
C873        C  0.39080700  0.60217526  0.43995473     0.19700
C874        C  0.36561328  0.59666848  0.42266609    -0.18400
C875        C  0.34886262  0.61800113  0.41038294    -0.10700
C876        C  0.35723535  0.64533450  0.41461194     0.21900
C877        C  0.38283252  0.65083786  0.43062792    -0.20000
C878        C  0.39941036  0.62953115  0.44342925    -0.10900
C879        C  0.33973332  0.66843168  0.40243533    -0.15000
C880        C  0.31234689  0.66793718  0.40678267    -0.28900
C881        C  0.40826263  0.57892259  0.45191946    -0.03200
C882        C  0.42734505  0.58084067  0.47911446    -0.39700
H883        H  0.35878619  0.57577302  0.41887578     0.13100
H884        H  0.32955387  0.61308713  0.39716130     0.12700
H885        H  0.38986374  0.67172660  0.43368746     0.12100
H886        H  0.41913899  0.63457731  0.45525148     0.12400
H887        H  0.34969875  0.68706914  0.39274851     0.15100
H888        H  0.30257072  0.65025578  0.41972590     0.13900
H889        H  0.40525641  0.55947934  0.43763022     0.11600
H890        H  0.42986831  0.59976835  0.49473620     0.13600
C891        C  0.40189103  0.88666005  0.45499852     0.19700
C892        C  0.40407172  0.86891157  0.42388757    -0.18400
C893        C  0.38171740  0.85302017  0.41256653    -0.10700
C894        C  0.35647385  0.85460461  0.43217110     0.21900
C895        C  0.35415452  0.87285889  0.46273619    -0.20000
C896        C  0.37649140  0.88871945  0.47404334    -0.10900
C897        C  0.33200114  0.83794771  0.42190111    -0.15000
C898        C  0.33255312  0.81622224  0.39839654    -0.28900
C899        C  0.42592876  0.90389698  0.46511297    -0.03200
C900        C  0.42894095  0.91601060  0.49907742    -0.39700
H901        H  0.42320047  0.86734489  0.40819362     0.13100
H902        H  0.38441424  0.83991202  0.38820760     0.12700
H903        H  0.33490068  0.87488133  0.47804526     0.12100
H904        H  0.37346589  0.90292213  0.49715318     0.12400
H905        H  0.31271438  0.84317279  0.43578380     0.15100
H906        H  0.35154308  0.80979910  0.38496637     0.13900
H907        H  0.44147420  0.90721230  0.44332807     0.11600
H908        H  0.41401534  0.91258364  0.52153685     0.13600
C909        C  0.10135401  0.39004908  0.68659543     0.19700
C910        C  0.12561876  0.39421578  0.66579408    -0.18400
C911        C  0.14198884  0.37217012  0.65497074    -0.10700
C912        C  0.13441918  0.34531956  0.66464908     0.21900
C913        C  0.10952162  0.34091290  0.68385599    -0.20000
C914        C  0.09313058  0.36306572  0.69492811    -0.10900
C915        C  0.15273905  0.32194345  0.65575868    -0.15000
C916        C  0.18002672  0.32465156  0.65851822    -0.28900
C917        C  0.08499733  0.41442056  0.69765631    -0.03200
C918        C  0.06559337  0.41452503  0.72500227    -0.39700
H919        H  0.13214153  0.41468670  0.65824234     0.13100
H920        H  0.16062573  0.37618346  0.63902870     0.12700
H921        H  0.10308389  0.32036176  0.69108357     0.12100
H922        H  0.07406017  0.35886070  0.70963299     0.12400
H923        H  0.14381920  0.30211672  0.64946445     0.15100
H924        H  0.18849029  0.34398490  0.66810341     0.13900
H925        H  0.08936631  0.43331901  0.68259831     0.11600
H926        H  0.06098317  0.39615635  0.74097658     0.13600
C927        C  0.40185356  0.39070763  0.54705910     0.19700
C928        C  0.39524542  0.38369721  0.58452398    -0.18400
C929        C  0.37422896  0.36512767  0.59245351    -0.10700
C930        C  0.35941219  0.35295612  0.56291462     0.21900
C931        C  0.36638645  0.35951288  0.52535004    -0.20000
C932        C  0.38730971  0.37832510  0.51741101    -0.10900
C933        C  0.33783228  0.33216313  0.57040373    -0.15000
C934        C  0.32328660  0.33117798  0.60295485    -0.28900
C935        C  0.42444250  0.41049275  0.54030693    -0.03200
C936        C  0.42597054  0.42690024  0.50983591    -0.39700
H937        H  0.40638783  0.39267945  0.60782465     0.13100
H938        H  0.37020718  0.35986313  0.62171281     0.12700
H939        H  0.35562748  0.35002118  0.50209123     0.12100
H940        H  0.39238519  0.38265074  0.48814217     0.12400
H941        H  0.33376539  0.31725595  0.54832643     0.15100
H942        H  0.32595939  0.34686831  0.62433820     0.13900
H943        H  0.43930789  0.41304990  0.56275534     0.11600
H944        H  0.41029605  0.42600180  0.48828917     0.13600
C945        C  0.35932801  0.14108392  0.59649807     0.19700
C946        C  0.35317859  0.11312910  0.59474471    -0.18400
C947        C  0.37138238  0.09483600  0.57747476    -0.10700
C948        C  0.39647029  0.10411145  0.56213341     0.21900
C949        C  0.40257522  0.13209646  0.56376281    -0.20000
C950        C  0.38435201  0.15039899  0.58099909    -0.10900
C951        C  0.41686319  0.08523371  0.54474691    -0.15000
C952        C  0.41861727  0.05875067  0.55445922    -0.28900
C953        C  0.33894232  0.15995123  0.61388489    -0.03200
C954        C  0.33651682  0.18603077  0.60272597    -0.39700
H955        H  0.33395960  0.10547611  0.60616635     0.13100
H956        H  0.36548540  0.07356555  0.57579456     0.12700
H957        H  0.42176634  0.13976941  0.55225722     0.12100
H958        H  0.39014978  0.17170607  0.58257407     0.12400
H959        H  0.43218113  0.09384244  0.52562361     0.15100
H960        H  0.40466100  0.05030580  0.57551047     0.13900
H961        H  0.32388246  0.15152999  0.63353908     0.11600
H962        H  0.34995321  0.19398335  0.58067566     0.13600
C963        C  0.26236113  0.24494474  0.84591493     0.19700
C964        C  0.24002359  0.23513097  0.86732644    -0.18400
C965        C  0.23818388  0.24023680  0.90632595    -0.10700
C966        C  0.25893884  0.25501728  0.92470621     0.21900
C967        C  0.28148752  0.26433744  0.90332573    -0.20000
C968        C  0.28318511  0.25947271  0.86440527    -0.10900
C969        C  0.25935798  0.25898850  0.96641593    -0.15000
C970        C  0.23725375  0.25761839  0.98963401    -0.28900
C971        C  0.26343759  0.23982558  0.80443077    -0.03200
C972        C  0.27468234  0.25780820  0.78002197    -0.39700
H973        H  0.22385181  0.22364168  0.85376999     0.13100
H974        H  0.22093588  0.23196273  0.92200967     0.12700
H975        H  0.29803494  0.27527993  0.91688690     0.12100
H976        H  0.30106957  0.26667023  0.84902004     0.12400
H977        H  0.27933040  0.26283771  0.97870901     0.15100
H978        H  0.21684597  0.25509634  0.97822571     0.13900
H979        H  0.25240169  0.22227017  0.79339562     0.11600
H980        H  0.28313738  0.27687099  0.79051023     0.13600
C981        C  0.24802096  0.23559164  0.42590606     0.19700
C982        C  0.26605241  0.21931652  0.40440367    -0.18400
C983        C  0.26752209  0.22185747  0.36499535    -0.10700
C984        C  0.25110496  0.24103928  0.34624248     0.21900
C985        C  0.23277763  0.25703849  0.36773127    -0.20000
C986        C  0.23110013  0.25427770  0.40712467    -0.10900
C987        C  0.25362115  0.24621005  0.30485452    -0.15000
C988        C  0.26348866  0.22800933  0.27948656    -0.28900
C989        C  0.25003180  0.23497997  0.46779990    -0.03200
C990        C  0.22988472  0.24250767  0.49208138    -0.39700
H991        H  0.27960376  0.20505904  0.41828525     0.13100
H992        H  0.28233271  0.20958599  0.34965425     0.12700
H993        H  0.22005822  0.27213138  0.35403497     0.12100
H994        H  0.21751625  0.26767177  0.42285259     0.12400
H995        H  0.24585200  0.26561452  0.29458851     0.15100
H996        H  0.26935091  0.20765372  0.28837813     0.13900
H997        H  0.26955316  0.22842680  0.47923189     0.11600
H998        H  0.20951724  0.24719021  0.48189550     0.13600
C999        C  0.14152892  0.35249989  0.17703360     0.19700
C1000       C  0.12934226  0.37208939  0.15372553    -0.18400
C1001       C  0.11149284  0.39163970  0.16906346    -0.10700
C1002       C  0.10506798  0.39161402  0.20801747     0.21900
C1003       C  0.11672384  0.37158618  0.23115785    -0.20000
C1004       C  0.13499323  0.35237754  0.21595041    -0.10900
C1005       C  0.08501776  0.41120117  0.22457297    -0.15000
C1006       C  0.08268080  0.43698279  0.21193014    -0.28900
C1007       C  0.16050790  0.33199661  0.16018219    -0.03200
C1008       C  0.18290918  0.32363663  0.17859195    -0.39700
H1009       H  0.13381612  0.37238326  0.12362678     0.13100
H1010       H  0.10219592  0.40629831  0.15023622     0.12700
H1011       H  0.11174290  0.37087237  0.26110077     0.12100
H1012       H  0.14353916  0.33708104  0.23450576     0.12400
H1013       H  0.07203784  0.40425668  0.24782734     0.15100
H1014       H  0.09683968  0.44441461  0.19034284     0.13900
H1015       H  0.15674521  0.32472093  0.13163090     0.11600
H1016       H  0.18765205  0.33270251  0.20585681     0.13600
C1017       C  0.36030745  0.35352036  0.08672381     0.19700
C1018       C  0.36816191  0.35754244  0.04879615    -0.18400
C1019       C  0.38767010  0.37720794  0.03895452    -0.10700
C1020       C  0.39983755  0.39348380  0.06695966     0.21900
C1021       C  0.39217344  0.38939009  0.10499395    -0.20000
C1022       C  0.37255208  0.36966300  0.11487995    -0.10900
C1023       C  0.42136898  0.41399891  0.05773847    -0.15000
C1024       C  0.42468181  0.42535057  0.02323705    -0.28900
C1025       C  0.34010084  0.33155429  0.09503640    -0.03200
C1026       C  0.32670346  0.32785634  0.12823506    -0.39700
H1027       H  0.35931275  0.34519850  0.02654687     0.13100
H1028       H  0.39357029  0.37899741  0.00948693     0.12700
H1029       H  0.40148717  0.40144548  0.12717039     0.12100
H1030       H  0.36755175  0.36688632  0.14449899     0.12400
H1031       H  0.43448105  0.42065871  0.08068153     0.15100
H1032       H  0.41071595  0.42050831  0.00050089     0.13900
H1033       H  0.33551930  0.31786881  0.07167315     0.11600
H1034       H  0.32992608  0.34146923  0.15200382     0.13600
C1035       C  0.35830305  0.13990283  0.08628428     0.19700
C1036       C  0.35339815  0.11211843  0.07953433    -0.18400
C1037       C  0.37395790  0.09541386  0.06432692    -0.10700
C1038       C  0.40028766  0.10600688  0.05635548     0.21900
C1039       C  0.40513193  0.13388058  0.06285991    -0.20000
C1040       C  0.38445945  0.15065671  0.07782457    -0.10900
C1041       C  0.42314286  0.08851203  0.04190418    -0.15000
C1042       C  0.42392833  0.06147885  0.04840356    -0.28900
C1043       C  0.33571853  0.15696845  0.10216059    -0.03200
C1044       C  0.33351521  0.18377638  0.09473681    -0.39700
H1045       H  0.33340827  0.10337316  0.08550855     0.13100
H1046       H  0.36890868  0.07431775  0.05852907     0.12700
H1047       H  0.42515053  0.14260096  0.05703669     0.12100
H1048       H  0.38923899  0.17186329  0.08341526     0.12400
H1049       H  0.44050624  0.09830002  0.02796313     0.15100
H1050       H  0.40756581  0.05189399  0.06462869     0.13900
H1051       H  0.31951479  0.14685378  0.11818742     0.11600
H1052       H  0.34857795  0.19361966  0.07647374     0.13600
C1053       C  0.85391732  0.14937738  0.67312546     0.19700
C1054       C  0.88244968  0.15301130  0.67338875    -0.18400
C1055       C  0.89949097  0.13327582  0.68936175    -0.10700
C1056       C  0.88830394  0.10933630  0.70530942     0.21900
C1057       C  0.85982803  0.10596542  0.70599534    -0.20000
C1058       C  0.84279796  0.12550721  0.68966529    -0.10900
C1059       C  0.90584232  0.08707572  0.71998612    -0.15000
C1060       C  0.92987224  0.08087679  0.70335613    -0.28900
C1061       C  0.83659629  0.17075180  0.65517507    -0.03200
C1062       C  0.80954770  0.17292400  0.66191187    -0.39700
H1063       H  0.89160820  0.17118808  0.66115509     0.13100
H1064       H  0.92139488  0.13680770  0.68922659     0.12700
H1065       H  0.85077183  0.08765611  0.71800391     0.12100
H1066       H  0.82108929  0.12124572  0.68937586     0.12400
H1067       H  0.89779754  0.07408106  0.74242607     0.15100
H1068       H  0.93689552  0.09267400  0.67908876     0.13900
H1069       H  0.84662708  0.18598620  0.63745272     0.11600
H1070       H  0.79944342  0.15902791  0.68140183     0.13600
C1071       C  0.85228624  0.85332375  0.80546583     0.19700
C1072       C  0.84782332  0.87224939  0.77638572    -0.18400
C1073       C  0.86875331  0.88997736  0.76470017    -0.10700
C1074       C  0.89477311  0.88852312  0.78126357     0.21900
C1075       C  0.89940066  0.86920136  0.80979063    -0.20000
C1076       C  0.87824730  0.85196581  0.82218162    -0.10900
C1077       C  0.91753831  0.90652607  0.76868347    -0.15000
C1078       C  0.91366808  0.93306965  0.76075912    -0.28900
C1079       C  0.83038754  0.83358430  0.81542175    -0.03200
C1080       C  0.82572708  0.82454753  0.85089295    -0.39700
H1081       H  0.82809219  0.87327317  0.76267117     0.13100
H1082       H  0.86480718  0.90432420  0.74210377     0.12700
H1083       H  0.91938625  0.86758181  0.82266159     0.12100
H1084       H  0.88243955  0.83701964  0.84392830     0.12400
H1085       H  0.93825046  0.89839294  0.76904721     0.15100
H1086       H  0.89341301  0.94197571  0.76420927     0.13900
H1087       H  0.81735520  0.82650146  0.79262175     0.11600
H1088       H  0.83700990  0.83310025  0.87446814     0.13600
C1089       C  0.10499152  0.89966330  0.79449721     0.19700
C1090       C  0.11631441  0.89898841  0.83085316    -0.18400
C1091       C  0.13299694  0.87725949  0.84207795    -0.10700
C1092       C  0.13919004  0.85578210  0.81681160     0.21900
C1093       C  0.12800605  0.85661488  0.78031726    -0.20000
C1094       C  0.11121716  0.87829291  0.76916850    -0.10900
C1095       C  0.15698588  0.83214609  0.82713471    -0.15000
C1096       C  0.17406646  0.83192488  0.85692887    -0.28900
C1097       C  0.08695143  0.92299699  0.78417417    -0.03200
C1098       C  0.06727259  0.92138755  0.75776106    -0.39700
H1099       H  0.11184537  0.91515621  0.85095430     0.13100
H1100       H  0.14053773  0.87734305  0.87071525     0.12700
H1101       H  0.13246934  0.84049275  0.76014949     0.12100
H1102       H  0.10351985  0.87837047  0.74056993     0.12400
H1103       H  0.15699608  0.81462785  0.80819299     0.15100
H1104       H  0.17555752  0.84959291  0.87530824     0.13900
H1105       H  0.08870014  0.94160448  0.80080314     0.11600
H1106       H  0.06397729  0.90239349  0.74260059     0.13600
C1107       C  0.14844558  0.14173500  0.67586077     0.19700
C1108       C  0.12772907  0.13109369  0.65297943    -0.18400
C1109       C  0.11104092  0.10973302  0.66590134    -0.10700
C1110       C  0.11413324  0.09895451  0.70267797     0.21900
C1111       C  0.13510131  0.10942117  0.72540530    -0.20000
C1112       C  0.15200601  0.13064805  0.71228708    -0.10900
C1113       C  0.09591504  0.07684061  0.71784425    -0.15000
C1114       C  0.07053187  0.07292764  0.70450636    -0.28900
C1115       C  0.16545911  0.16482728  0.66137781    -0.03200
C1116       C  0.19158090  0.16858113  0.67188225    -0.39700
H1117       H  0.12466802  0.13911212  0.62476727     0.13100
H1118       H  0.09600788  0.10160556  0.64662889     0.12700
H1119       H  0.13807658  0.10150917  0.75368240     0.12100
H1120       H  0.16738102  0.13874737  0.73110672     0.12400
H1121       H  0.10326105  0.06399910  0.74064280     0.15100
H1122       H  0.06281145  0.08652481  0.68288735     0.13900
H1123       H  0.15652459  0.17853727  0.64073399     0.11600
H1124       H  0.20106034  0.15392817  0.69070043     0.13600
C1125       C  0.00039549  0.99917879  0.44518432     0.19700
C1126       C  0.00835543  0.97584985  0.46538514    -0.18400
C1127       C  0.00537164  0.97478261  0.50479166    -0.10700
C1128       C  0.99454045  0.99726621  0.52466768     0.21900
C1129       C  0.98664387  0.02055453  0.50438256    -0.20000
C1130       C  0.98948841  0.02155332  0.46511991    -0.10900
C1131       C  0.99314845  0.99855109  0.56652285    -0.15000
C1132       C  0.99427241  0.97696149  0.59016792    -0.28900
C1133       C  0.00470152  0.99994883  0.40362559    -0.03200
C1134       C  0.98949387  0.01530463  0.38027727    -0.39700
H1135       H  0.01708257  0.95843666  0.45060420     0.13100
H1136       H  0.01232875  0.95675578  0.51949109     0.12700
H1137       H  0.97861639  0.03832212  0.51908980     0.12100
H1138       H  0.98388364  0.04018826  0.45070162     0.12400
H1139       H  0.99103183  0.01889867  0.57857043     0.15100
H1140       H  0.99503262  0.95621135  0.57942064     0.13900
H1141       H  0.01992258  0.98615166  0.39158880     0.11600
H1142       H  0.97255352  0.02737709  0.39128800     0.13600
C1143       C  0.00370580  0.00125376  0.02480379     0.19700
C1144       C  0.99318762  0.02334524  0.00426346    -0.18400
C1145       C  0.99502155  0.02393320  0.96478169    -0.10700
C1146       C  0.00778140  0.00247356  0.94487728     0.21900
C1147       C  0.01863676  0.98050813  0.96544417    -0.20000
C1148       C  0.01647368  0.97974717  0.00503280    -0.10900
C1149       C  0.01077808  0.00283216  0.90290878    -0.15000
C1150       C  0.99282954  0.01542182  0.88009706    -0.28900
C1151       C  0.00275033  0.00261539  0.06676836    -0.03200
C1152       C  0.00235890  0.98075583  0.09005445    -0.39700
H1153       H  0.98363697  0.04038314  0.01890475     0.13100
H1154       H  0.98709687  0.04156404  0.95008946     0.12700
H1155       H  0.02884304  0.96385403  0.95078732     0.12100
H1156       H  0.02546359  0.96279427  0.02005609     0.12400
H1157       H  0.02721185  0.99082554  0.89026635     0.15100
H1158       H  0.97482785  0.02528448  0.89210093     0.13900
H1159       H  0.00138541  0.02294648  0.07905292     0.11600
H1160       H  0.00187947  0.96017968  0.07862735     0.13600
C1161       C  0.89448379  0.10914990  0.18798675     0.19700
C1162       C  0.86605261  0.10497929  0.18837284    -0.18400
C1163       C  0.84836252  0.12433134  0.17290332    -0.10700
C1164       C  0.85866856  0.14882547  0.15726353     0.21900
C1165       C  0.88718081  0.15290660  0.15665218    -0.20000
C1166       C  0.90491667  0.13339852  0.17190740    -0.10900
C1167       C  0.84052715  0.17066936  0.14185108    -0.15000
C1168       C  0.81344321  0.17208243  0.14934602    -0.28900
C1169       C  0.91232893  0.08778316  0.20484493    -0.03200
C1170       C  0.93878829  0.08419456  0.19499699    -0.39700
H1171       H  0.85745471  0.08643669  0.20032812     0.13100
H1172       H  0.82673761  0.11964188  0.17309661     0.12700
H1173       H  0.89577726  0.17149417  0.14484558     0.12100
H1174       H  0.92665469  0.13771995  0.17170372     0.12400
H1175       H  0.85007245  0.18700305  0.12557265     0.15100
H1176       H  0.80366880  0.15684869  0.16713868     0.13900
H1177       H  0.90278500  0.07327829  0.22419297     0.11600
H1178       H  0.94824844  0.09730570  0.17383872     0.13600
C1179       C  0.89350034  0.89429336  0.28279422     0.19700
C1180       C  0.89057652  0.86707347  0.27118966    -0.18400
C1181       C  0.87119836  0.84996907  0.28849560    -0.10700
C1182       C  0.85456616  0.85958277  0.31857741     0.21900
C1183       C  0.85759914  0.88681559  0.33026929    -0.20000
C1184       C  0.87690557  0.90396090  0.31280784    -0.10900
C1185       C  0.83307471  0.84233989  0.33719269    -0.15000
C1186       C  0.83246719  0.81494753  0.33438247    -0.28900
C1187       C  0.91501225  0.91150793  0.26442993    -0.03200
C1188       C  0.91403791  0.93895283  0.26406382    -0.39700
H1189       H  0.90314397  0.85907540  0.24828798     0.13100
H1190       H  0.86912774  0.82949050  0.27747889     0.12700
H1191       H  0.84510622  0.89482401  0.35323505     0.12100
H1192       H  0.87910405  0.92453698  0.32354307     0.12400
H1193       H  0.81687875  0.85260048  0.35299986     0.15100
H1194       H  0.84867423  0.80420783  0.31944334     0.13900
H1195       H  0.93247410  0.90122088  0.25151341     0.11600
H1196       H  0.89638392  0.94946125  0.27596133     0.13600
C1197       C  0.14313562  0.85510681  0.31592656     0.19700
C1198       C  0.12216457  0.84945757  0.29005617    -0.18400
C1199       C  0.10340085  0.86963717  0.27952446    -0.10700
C1200       C  0.10522017  0.89622641  0.29457273     0.21900
C1201       C  0.12634148  0.90191731  0.32022005    -0.20000
C1202       C  0.14509549  0.88174452  0.33074252    -0.10900
C1203       C  0.08580928  0.91871406  0.28484476    -0.15000
C1204       C  0.06462429  0.91669189  0.26061352    -0.28900
C1205       C  0.16261767  0.83272629  0.32573125    -0.03200
C1206       C  0.18090623  0.83369105  0.35415380    -0.39700
H1207       H  0.12018860  0.82920780  0.27795299     0.13100
H1208       H  0.08765503  0.86407510  0.25970201     0.12700
H1209       H  0.12843618  0.92219671  0.33219898     0.12100
H1210       H  0.16114281  0.88739469  0.35007195     0.12400
H1211       H  0.08917370  0.93820651  0.29883674     0.15100
H1212       H  0.06038747  0.89773746  0.24594868     0.13900
H1213       H  0.16153983  0.81422699  0.30875720     0.11600
H1214       H  0.18233055  0.85151809  0.37222820     0.13600
C1215       C  0.15627703  0.13323722  0.16804396     0.19700
C1216       C  0.15776908  0.11537761  0.19902775    -0.18400
C1217       C  0.13610581  0.09761698  0.20770214    -0.10700
C1218       C  0.11239927  0.09730329  0.18532167     0.21900
C1219       C  0.11121379  0.11476202  0.15386923    -0.20000
C1220       C  0.13285251  0.13245340  0.14519258    -0.10900
C1221       C  0.08870170  0.07881856  0.19263689    -0.15000
C1222       C  0.08519154  0.06322430  0.22376189    -0.28900
C1223       C  0.17952661  0.15225199  0.16059181    -0.03200
C1224       C  0.17716788  0.17549116  0.14049943    -0.39700
H1225       H  0.17570555  0.11533327  0.21685061     0.13100
H1226       H  0.13831681  0.08417312  0.23168550     0.12700
H1227       H  0.09341787  0.11470486  0.13576911     0.12100
H1228       H  0.13116304  0.14512975  0.12030175     0.12400
H1229       H  0.07305366  0.07820774  0.17096383     0.15100
H1230       H  0.09995928  0.06344737  0.24644117     0.13900
H1231       H  0.19885023  0.14786900  0.17434297     0.11600
H1232       H  0.15767693  0.18119562  0.12839138     0.13600
loop_ 
_geom_bond_atom_site_label_1 
_geom_bond_atom_site_label_2 
_geom_bond_distance 
_geom_bond_site_symmetry_2 
_ccdc_geom_bond_type 
O1           C17   1.271       .  A
O1           Zn7   2.014   1_655  S
C2           O18   1.273       .  A
C2           O15   1.275       .  A
C2         C1222   1.478       .  S
O3           C16   1.279   1_655  A
O3          Cd10   2.104       .  S
O4           C22   1.274       .  A
O4          Cd13   2.067       .  S
O5           C19   1.274       .  A
O5           Cd9   2.072       .  S
O6           C17   1.276       .  A
O6           Cd9   2.084       .  S
Zn7          O18   2.002       .  S
Zn7          O20   1.990       .  S
Zn7          O12   1.929   1_455  S
O8           C19   1.275   1_455  A
O8          Cd13   2.062   1_545  S
Cd9          O11   2.056   1_545  S
Cd9          O12   2.003       .  S
Cd10         O14   2.097       .  S
Cd10         O23   2.097   1_655  S
Cd10         O12   2.015   1_565  S
O11          C21   1.273       .  A
O12         Cd13   1.999   1_645  S
Cd13         O15   2.080   1_565  S
O14          C21   1.280       .  A
C16          O20   1.273   1_565  A
C16        C1152   1.483       .  S
C17        C1170   1.480       .  S
C19        C1134   1.471       .  S
C21        C1188   1.476       .  S
C22          O23   1.277       .  A
C22        C1204   1.485       .  S
O24          C40   1.267       .  A
O24         Zn30   1.985       .  S
C25          O41   1.267       .  A
C25          O38   1.280       .  A
C25        C1114   1.477       .  S
O26          C39   1.276       .  A
O26         Cd33   2.096       .  S
O27          C45   1.278       .  A
O27         Cd36   2.086   1_565  S
O28          C42   1.275       .  A
O28         Cd32   2.069       .  S
O29          C40   1.275       .  A
O29         Cd32   2.089       .  S
Zn30         O41   1.970   1_655  S
Zn30         O43   1.973       .  S
Zn30         O35   1.915   1_545  S
O31          C42   1.279   1_455  A
O31         Cd36   2.090       .  S
Cd32         O34   2.071   1_545  S
Cd32         O35   2.006   1_545  S
Cd33         O37   2.084       .  S
Cd33         O46   2.077   1_655  S
Cd33         O35   2.013       .  S
O34          C44   1.274       .  A
O35         Cd36   2.018   1_665  S
Cd36         O38   2.123       .  S
O37          C44   1.277       .  A
C39          O43   1.270   1_565  A
C39        C1132   1.479       .  S
C40        C1060   1.473       .  S
C42        C1150   1.477       .  S
C44        C1078   1.474       .  S
C45          O46   1.276       .  A
C45        C1098   1.481       .  S
O47          C63   1.272       .  A
O47         Zn53   1.990       .  S
C48          O64   1.270       .  A
C48          O61   1.278       .  A
C48        C1044   1.477       .  S
O49          C62   1.276       .  A
O49         Cd56   2.097       .  S
O50          C68   1.277       .  A
O50         Cd59   2.074       .  S
O51          C65   1.275       .  A
O51         Cd55   2.066       .  S
O52          C63   1.275       .  A
O52         Cd55   2.089       .  S
Zn53         O64   1.997       .  S
Zn53         O66   1.995       .  S
Zn53         O58   1.923       .  S
O54          C65   1.276       .  A
O54         Cd59   2.085       .  S
Cd55         O57   2.055       .  S
Cd55         O58   1.999       .  S
Cd56         O60   2.102       .  S
Cd56         O69   2.074       .  S
Cd56         O58   2.014       .  S
O57          C67   1.272       .  A
O58         Cd59   2.011       .  S
Cd59         O61   2.097       .  S
O60          C67   1.279       .  A
C62          O66   1.272       .  A
C62         C970   1.483   1_554  S
C63        C1026   1.480       .  S
C65         C988   1.479       .  S
C67        C1008   1.477       .  S
C68          O69   1.276       .  A
C68        C1224   1.476       .  S
O70          C86   1.273       .  A
O70         Zn76   2.018       .  S
C71          O87   1.270       .  A
C71          O84   1.278       .  A
C71         C954   1.472       .  S
O72          C85   1.278       .  A
O72         Cd79   2.104       .  S
O73          C91   1.273       .  A
O73         Cd82   2.058       .  S
O74          C88   1.272       .  A
O74         Cd78   2.058       .  S
O75          C86   1.271       .  A
O75         Cd78   2.063       .  S
Zn76         O87   1.989       .  S
Zn76         O89   1.991       .  S
Zn76         O81   1.934       .  S
O77          C88   1.277       .  A
O77         Cd82   2.089       .  S
Cd78         O80   2.045       .  S
Cd78         O81   1.989       .  S
Cd79         O83   2.100       .  S
Cd79         O92   2.102       .  S
Cd79         O81   2.023       .  S
O80          C90   1.271       .  A
O81         Cd82   2.006       .  S
Cd82         O84   2.092       .  S
O83          C90   1.279       .  A
C85          O89   1.272       .  A
C85         C990   1.481       .  S
C86         C934   1.475       .  S
C88         C972   1.473       .  S
C90         C916   1.472       .  S
C91          O92   1.280       .  A
C91        C1116   1.479       .  S
O93         C109   1.274       .  A
O93         Zn99   2.017       .  S
C94         O110   1.275       .  A
C94         O107   1.276       .  A
C94        C1206   1.484       .  S
O95         C108   1.276       .  A
O95        Cd102   2.088       .  S
O96         C114   1.277       .  A
O96        Cd105   2.076       .  S
O97         C111   1.276       .  A
O97        Cd101   2.070       .  S
O98         C109   1.273       .  A
O98        Cd101   2.072       .  S
Zn99        O110   2.023       .  S
Zn99        O112   1.988       .  S
Zn99        O104   1.939       .  S
O100        C111   1.274       .  A
O100       Cd105   2.066       .  S
Cd101       O103   2.064       .  S
Cd101       O104   2.001       .  S
Cd102       O106   2.088       .  S
Cd102       O115   2.080       .  S
Cd102       O104   2.015       .  S
O103        C113   1.272       .  A
O104       Cd105   2.002       .  S
Cd105       O107   2.086       .  S
O106        C113   1.277       .  A
C108        O112   1.272       .  A
C108        C844   1.477       .  S
C109        C862   1.477       .  S
C111        C826   1.472       .  S
C113        C880   1.476       .  S
C114        O115   1.276       .  A
C114        C898   1.481       .  S
O116        C132   1.276       .  A
O116       Zn122   2.024       .  S
C117        O133   1.276       .  A
C117        O130   1.274       .  A
C117       C1096   1.483       .  S
O118        C131   1.275       .  A
O118       Cd125   2.078       .  S
O119        C137   1.275       .  A
O119       Cd128   2.071       .  S
O120        C134   1.276       .  A
O120       Cd124   2.071       .  S
O121        C132   1.277       .  A
O121       Cd124   2.087       .  S
Zn122       O133   2.039       .  S
Zn122       O135   1.997       .  S
Zn122       O127   1.947       .  S
O123        C134   1.274       .  A
O123       Cd128   2.064       .  S
Cd124       O126   2.088       .  S
Cd124       O127   2.009       .  S
Cd125       O129   2.079       .  S
Cd125       O138   2.077       .  S
Cd125       O127   2.008       .  S
O126        C136   1.277       .  A
O127       Cd128   2.000       .  S
Cd128       O130   2.076       .  S
O129        C136   1.275       .  A
C131        O135   1.273       .  A
C131        C828   1.473       .  S
C132        C774   1.482       .  S
C134        C846   1.472   1_556  S
C136        C790   1.484       .  S
C137        O138   1.275       .  A
C137        C808   1.479       .  S
O139        C155   1.271       .  A
O139       Zn145   1.999       .  S
C140        O156   1.273       .  A
C140        O153   1.274   1_556  A
C140        C810   1.478       .  S
O141        C154   1.279       .  A
O141       Cd148   2.111       .  S
O142        C160   1.271       .  A
O142       Cd151   2.044   1_545  S
O143        C157   1.276       .  A
O143       Cd147   2.086       .  S
O144        C155   1.278   1_554  A
O144       Cd147   2.094       .  S
Zn145       O156   2.010       .  S
Zn145       O158   1.984       .  S
Zn145       O150   1.923   1_556  S
O146        C157   1.275       .  A
O146       Cd151   2.063       .  S
Cd147       O149   2.070   1_565  S
Cd147       O150   2.002       .  S
Cd148       O152   2.101   1_556  S
Cd148       O161   2.110   1_556  S
Cd148       O150   2.023   1_546  S
O149        C159   1.275       .  A
O150       Cd151   1.987       .  S
Cd151       O153   2.078       .  S
O152        C159   1.280       .  A
C154        O158   1.272   1_545  A
C154        C700   1.486       .  S
C155        C738   1.476       .  S
C157        C720   1.479       .  S
C159        C754   1.481       .  S
C160        O161   1.281       .  A
C160       C1042   1.476       .  S
O162        C178   1.277       .  A
O162       Zn168   2.029       .  S
C163        O179   1.276       .  A
C163        O176   1.273       .  A
C163        C900   1.477       .  S
O164        C177   1.276       .  A
O164       Cd171   2.089       .  S
O165        C183   1.272       .  A
O165       Cd174   2.058   1_545  S
O166        C180   1.276       .  A
O166       Cd170   2.086       .  S
O167        C178   1.277       .  A
O167       Cd170   2.084       .  S
Zn168       O179   2.033       .  S
Zn168       O181   2.003       .  S
Zn168       O173   1.942       .  S
O169        C180   1.273       .  A
O169       Cd174   2.063       .  S
Cd170       O172   2.063   1_565  S
Cd170       O173   2.001       .  S
Cd171       O175   2.076       .  S
Cd171       O184   2.084       .  S
Cd171       O173   2.013   1_545  S
O172        C182   1.275       .  A
O173       Cd174   1.992       .  S
Cd174       O176   2.063       .  S
O175        C182   1.274       .  A
C177        O181   1.273   1_545  A
C177        C718   1.481       .  S
C178        C664   1.484       .  S
C180        C702   1.473       .  S
C182        C684   1.478       .  S
C183        O184   1.277       .  A
C183        C952   1.474       .  S
O185        C201   1.271       .  A
O185       Zn191   1.997       .  S
C186        O202   1.273       .  A
C186        O199   1.276       .  A
C186        C628   1.483       .  S
O187        C200   1.275       .  A
O187       Cd194   2.081       .  S
O188        C206   1.275       .  A
O188       Cd197   2.065       .  S
O189        C203   1.276       .  A
O189       Cd193   2.077       .  S
O190        C201   1.279       .  A
O190       Cd193   2.098       .  S
Zn191       O202   2.001       .  S
Zn191       O204   2.005       .  S
Zn191       O196   1.928       .  S
O192        C203   1.276       .  A
O192       Cd197   2.070       .  S
Cd193       O195   2.089       .  S
Cd193       O196   2.010       .  S
Cd194       O198   2.077       .  S
Cd194       O207   2.074       .  S
Cd194       O196   2.002       .  S
O195        C205   1.277       .  A
O196       Cd197   2.003       .  S
Cd197       O199   2.093       .  S
O198        C205   1.275       .  A
C200        O204   1.273       .  A
C200        C612   1.478       .  S
C201       C1186   1.475       .  S
C203        C592   1.476       .  S
C205        C666   1.482       .  S
C206        O207   1.275       .  A
C206        C646   1.475       .  S
O208        C224   1.271       .  A
O208       Zn214   1.997       .  S
C209        O225   1.271       .  A
C209        O222   1.275       .  A
C209        C558   1.471       .  S
O210        C223   1.278       .  A
O210       Cd217   2.105       .  S
O211        C229   1.274       .  A
O211       Cd220   2.061       .  S
O212        C226   1.275       .  A
O212       Cd216   2.066       .  S
O213        C224   1.274       .  A
O213       Cd216   2.086       .  S
Zn214       O225   2.004       .  S
Zn214       O227   1.978       .  S
Zn214       O219   1.922       .  S
O215        C226   1.275       .  A
O215       Cd220   2.076       .  S
Cd216       O218   2.050       .  S
Cd216       O219   1.992       .  S
Cd217       O221   2.101       .  S
Cd217       O230   2.100       .  S
Cd217       O219   2.020       .  S
O218        C228   1.272       .  A
O219       Cd220   1.996       .  S
Cd220       O222   2.076       .  S
O221        C228   1.280       .  A
C223        O227   1.272       .  A
C223        C594   1.480       .  S
C224       C1080   1.476       .  S
C226        C610   1.477   1_556  S
C228        C736   1.475       .  S
C229        O230   1.279       .  A
C229        C574   1.478       .  S
O231        C247   1.269       .  A
O231       Zn237   1.991       .  S
C232        O248   1.268       .  A
C232        O245   1.278       .  A
C232        C540   1.476       .  S
O233        C246   1.277       .  A
O233       Cd240   2.106       .  S
O234        C252   1.278       .  A
O234       Cd243   2.087       .  S
O235        C249   1.279       .  A
O235       Cd239   2.090       .  S
O236        C247   1.279       .  A
O236       Cd239   2.111       .  S
Zn237       O248   1.982       .  S
Zn237       O250   1.972       .  S
Zn237       O242   1.921       .  S
O238        C249   1.276       .  A
O238       Cd243   2.078       .  S
Cd239       O241   2.062       .  S
Cd239       O242   2.010       .  S
Cd240       O244   2.099       .  S
Cd240       O253   2.083       .  S
Cd240       O242   2.024       .  S
O241        C251   1.274       .  A
O242       Cd243   2.015       .  S
Cd243       O245   2.107       .  S
O244        C251   1.279       .  A
C246        O250   1.270       .  A
C246        C486   1.484   1_554  S
C247        C756   1.480       .  S
C249        C502   1.480       .  S
C251       C1168   1.479       .  S
C252        O253   1.276       .  A
C252        C522   1.482       .  S
O254        C270   1.273       .  A
O254       Zn260   2.020       .  S
C255        O271   1.272       .  A
C255        O268   1.278       .  A
C255        C466   1.472       .  S
O256        C269   1.280       .  A
O256       Cd263   2.115       .  S
O257        C275   1.276       .  A
O257       Cd266   2.066       .  S
O258        C272   1.271       .  A
O258       Cd262   2.054       .  S
O259        C270   1.270       .  A
O259       Cd262   2.056       .  S
Zn260       O271   1.995       .  S
Zn260       O273   2.001       .  S
Zn260       O265   1.932       .  S
O261        C272   1.276       .  A
O261       Cd266   2.088       .  S
Cd262       O264   2.040       .  S
Cd262       O265   1.990       .  S
Cd263       O267   2.104       .  S
Cd263       O276   2.094       .  S
Cd263       O265   2.017       .  S
O264        C274   1.270       .  A
O265       Cd266   2.009       .  S
Cd266       O268   2.094       .  S
O267        C274   1.280       .  A
C269        O273   1.273       .  A
C269        C504   1.488       .  S
C270        C682   1.473       .  S
C272        C484   1.471       .  S
C274       C1062   1.474       .  S
C275        O276   1.278       .  A
C275        C448   1.483       .  S
O277        C293   1.273       .  A
O277       Zn283   2.008       .  S
C278        O294   1.272       .  A
C278        O291   1.278       .  A
C278        C538   1.479       .  S
O279        C292   1.276       .  A
O279       Cd286   2.094       .  S
O280        C298   1.277       .  A
O280       Cd289   2.077       .  S
O281        C295   1.276       .  A
O281       Cd285   2.066       .  S
O282        C293   1.274   1_556  A
O282       Cd285   2.074       .  S
Zn283       O294   2.006       .  S
Zn283       O296   1.975       .  S
Zn283       O288   1.929       .  S
O284        C295   1.276       .  A
O284       Cd289   2.081       .  S
Cd285       O287   2.068       .  S
Cd285       O288   1.997   1_556  S
Cd286       O290   2.096       .  S
Cd286       O299   2.081       .  S
Cd286       O288   2.019       .  S
O287        C297   1.273       .  A
O288       Cd289   2.011   1_554  S
Cd289       O291   2.099   1_556  S
O290        C297   1.278   1_554  A
C292        O296   1.270       .  A
C292        C430   1.478       .  S
C293       C1024   1.475       .  S
C295        C412   1.477       .  S
C297        C792   1.481       .  S
C298        O299   1.277   1_556  A
C298        C576   1.481       .  S
O300        C316   1.276       .  A
O300       Zn306   2.022       .  S
C301        O317   1.275       .  A
C301        O314   1.272       .  A
C301        C468   1.478       .  S
O302        C315   1.276       .  A
O302       Cd309   2.086       .  S
O303        C321   1.273       .  A
O303       Cd312   2.051       .  S
O304        C318   1.274       .  A
O304       Cd308   2.065       .  S
O305        C316   1.274       .  A
O305       Cd308   2.072       .  S
Zn306       O317   2.025       .  S
Zn306       O319   2.001       .  S
Zn306       O311   1.938       .  S
O307        C318   1.273       .  A
O307       Cd312   2.062       .  S
Cd308       O310   2.067       .  S
Cd308       O311   1.999       .  S
Cd309       O313   2.082       .  S
Cd309       O322   2.085       .  S
Cd309       O311   2.009       .  S
O310        C320   1.275       .  A
O311       Cd312   1.994       .  S
Cd312       O314   2.066       .  S
O313        C320   1.276       .  A
C315        O319   1.273       .  A
C315        C414   1.477       .  S
C316        C936   1.477       .  S
C318        C432   1.471       .  S
C320        C882   1.479       .  S
C321        O322   1.276       .  A
C321        C648   1.475       .  S
O323        C339   1.271       .  A
O323       Zn329   2.007   1_455  S
C324        O340   1.273       .  A
C324        O337   1.276       .  A
C324        C630   1.480       .  S
O325        C338   1.275       .  A
O325       Cd332   2.085       .  S
O326        C344   1.276       .  A
O326       Cd335   2.075       .  S
O327        C341   1.275       .  A
O327       Cd331   2.075       .  S
O328        C339   1.276       .  A
O328       Cd331   2.090       .  S
Zn329       O340   2.003       .  S
Zn329       O342   1.991   1_655  S
Zn329       O334   1.930   1_655  S
O330        C341   1.276   1_655  A
O330       Cd335   2.072       .  S
Cd331       O333   2.068       .  S
Cd331       O334   2.003       .  S
Cd332       O336   2.089       .  S
Cd332       O345   2.088   1_455  S
Cd332       O334   2.013       .  S
O333        C343   1.274       .  A
O334       Cd335   2.002   1_455  S
Cd335       O337   2.089       .  S
O336        C343   1.278       .  A
C338        O342   1.272       .  A
C338        C378   1.474       .  S
C339        C864   1.475       .  S
C341        C396   1.477       .  S
C343       C1006   1.478       .  S
C344        O345   1.276       .  A
C344        C520   1.482       .  S
O346        C362   1.274       .  A
O346       Zn352   2.020       .  S
C347        O363   1.274       .  A
C347        O360   1.272       .  A
C347        C556   1.471       .  S
O348        C361   1.278       .  A
O348       Cd355   2.097       .  S
O349        C367   1.271       .  A
O349       Cd358   2.056       .  S
O350        C364   1.273       .  A
O350       Cd354   2.066       .  S
O351        C362   1.275       .  A
O351       Cd354   2.087       .  S
Zn352       O363   2.011   1_455  S
Zn352       O365   1.990   1_455  S
Zn352       O357   1.935       .  S
O353        C364   1.275   1_655  A
O353       Cd358   2.062       .  S
Cd354       O356   2.070       .  S
Cd354       O357   2.001       .  S
Cd355       O359   2.074   1_655  S
Cd355       O368   2.104       .  S
Cd355       O357   2.018   1_655  S
O356        C366   1.277       .  A
O357       Cd358   1.994   1_455  S
Cd358       O360   2.060       .  S
O359        C366   1.275       .  A
C361        O365   1.273       .  A
C361        C394   1.480       .  S
C362        C772   1.482       .  S
C364        C376   1.471       .  S
C366        C918   1.477       .  S
C367        O368   1.278       .  A
C367        C450   1.479       .  S
C369        C377   1.478       .  S
C369        C370   1.403       .  A
C369        C374   1.405   1_455  A
C370        C371   1.397       .  A
C370        H379   1.083       .  S
C371        C372   1.405       .  A
C371        H380   1.082       .  S
C372        C375   1.479   1_455  S
C372        C373   1.402   1_455  A
C373        C374   1.396       .  A
C373        H381   1.084       .  S
C374        H382   1.082       .  S
C375        H383   1.087       .  S
C375        C376   1.343   1_655  D
C376        H384   1.086       .  S
C377        H385   1.087       .  S
C377        C378   1.346       .  D
C378        H386   1.086       .  S
C387        C395   1.486       .  S
C387        C388   1.404       .  A
C387        C392   1.406   1_655  A
C388        C389   1.399   1_554  A
C388        H397   1.084       .  S
C389        C390   1.406       .  A
C389        H398   1.081       .  S
C390        C393   1.486       .  S
C390        C391   1.405   1_655  A
C391        C392   1.398   1_556  A
C391        H399   1.084       .  S
C392        H400   1.082       .  S
C393        H401   1.087   1_655  S
C393        C394   1.351       .  D
C394        H402   1.084       .  S
C395        H403   1.087       .  S
C395        C396   1.347   1_655  D
C396        H404   1.085       .  S
C405        C413   1.482       .  S
C405        C406   1.404       .  A
C405        C410   1.404       .  A
C406        C407   1.399       .  A
C406        H415   1.084       .  S
C407        C408   1.406       .  A
C407        H416   1.082       .  S
C408        C411   1.484       .  S
C408        C409   1.404       .  A
C409        C410   1.398       .  A
C409        H417   1.084       .  S
C410        H418   1.082       .  S
C411        H419   1.087       .  S
C411        C412   1.347       .  D
C412        H420   1.085       .  S
C413        H421   1.087       .  S
C413        C414   1.348       .  D
C414        H422   1.086       .  S
C423        C431   1.481       .  S
C423        C424   1.404       .  A
C423        C428   1.405       .  A
C424        C425   1.400       .  A
C424        H433   1.084       .  S
C425        C426   1.406       .  A
C425        H434   1.081       .  S
C426        C429   1.479       .  S
C426        C427   1.403       .  A
C427        C428   1.393       .  A
C427        H435   1.084       .  S
C428        H436   1.082       .  S
C429        H437   1.087       .  S
C429        C430   1.349       .  D
C430        H438   1.085       .  S
C431        H439   1.087       .  S
C431        C432   1.345       .  D
C432        H440   1.085       .  S
C441        C449   1.490       .  S
C441        C442   1.404       .  A
C441        C446   1.407       .  A
C442        C443   1.402       .  A
C442        H451   1.083       .  S
C443        C444   1.409       .  A
C443        H452   1.081       .  S
C444        C447   1.490       .  S
C444        C445   1.404       .  A
C445        C446   1.399       .  A
C445        H453   1.084       .  S
C446        H454   1.082       .  S
C447        H455   1.087       .  S
C447        C448   1.350       .  D
C448        H456   1.085       .  S
C449        H457   1.087       .  S
C449        C450   1.345       .  D
C450        H458   1.086       .  S
C459        C467   1.484       .  S
C459        C460   1.401       .  A
C459        C464   1.409       .  A
C460        C461   1.396       .  A
C460        H469   1.083       .  S
C461        C462   1.406       .  A
C461        H470   1.083       .  S
C462        C465   1.483       .  S
C462        C463   1.402       .  A
C463        C464   1.401       .  A
C463        H471   1.083       .  S
C464        H472   1.082       .  S
C465        H473   1.087       .  S
C465        C466   1.342       .  D
C466        H474   1.087       .  S
C467        H475   1.087       .  S
C467        C468   1.345       .  D
C468        H476   1.086       .  S
C477        C485   1.485       .  S
C477        C478   1.405       .  A
C477        C482   1.407       .  A
C478        C479   1.394       .  A
C478        H487   1.084       .  S
C479        C480   1.404       .  A
C479        H488   1.082       .  S
C480        C483   1.484       .  S
C480        C481   1.405       .  A
C481        C482   1.403       .  A
C481        H489   1.083       .  S
C482        H490   1.081       .  S
C483        H491   1.087       .  S
C483        C484   1.345       .  D
C484        H492   1.086       .  S
C485        H493   1.087       .  S
C485        C486   1.352       .  D
C486        H494   1.084       .  S
C495        C503   1.491       .  S
C495        C496   1.406       .  A
C495        C500   1.407       .  A
C496        C497   1.399       .  A
C496        H505   1.084       .  S
C497        C498   1.406       .  A
C497        H506   1.082       .  S
C498        C501   1.493       .  S
C498        C499   1.407       .  A
C499        C500   1.404       .  A
C499        H507   1.084       .  S
C500        H508   1.081       .  S
C501        H509   1.087       .  S
C501        C502   1.349       .  D
C502        H510   1.085       .  S
C503        H511   1.087       .  S
C503        C504   1.353       .  D
C504        H512   1.085       .  S
C513        C521   1.490       .  S
C513        C514   1.406       .  A
C513        C518   1.407       .  A
C514        C515   1.402       .  A
C514        H523   1.083       .  S
C515        C516   1.406       .  A
C515        H524   1.083       .  S
C516        C519   1.486       .  S
C516        C517   1.403       .  A
C517        C518   1.400       .  A
C517        H525   1.083       .  S
C518        H526   1.082       .  S
C519        H527   1.087       .  S
C519        C520   1.347       .  D
C520        H528   1.086       .  S
C521        H529   1.087       .  S
C521        C522   1.348       .  D
C522        H530   1.086       .  S
C531        C539   1.488       .  S
C531        C532   1.401       .  A
C531        C536   1.409       .  A
C532        C533   1.401       .  A
C532        H541   1.083       .  S
C533        C534   1.409       .  A
C533        H542   1.082       .  S
C534        C537   1.487       .  S
C534        C535   1.401       .  A
C535        C536   1.399       .  A
C535        H543   1.083   1_554  S
C536        H544   1.083       .  S
C537        H545   1.087       .  S
C537        C538   1.344       .  D
C538        H546   1.087       .  S
C539        H547   1.086       .  S
C539        C540   1.342       .  D
C540        H548   1.087       .  S
C549        C557   1.479       .  S
C549        C550   1.401       .  A
C549        C554   1.407       .  A
C550        C551   1.397       .  A
C550        H559   1.083       .  S
C551        C552   1.406       .  A
C551        H560   1.083       .  S
C552        C555   1.476       .  S
C552        C553   1.400       .  A
C553        C554   1.397       .  A
C553        H561   1.084       .  S
C554        H562   1.082       .  S
C555        H563   1.087       .  S
C555        C556   1.342       .  D
C556        H564   1.087       .  S
C557        H565   1.087       .  S
C557        C558   1.341       .  D
C558        H566   1.087       .  S
C567        C575   1.492       .  S
C567        C568   1.404       .  A
C567        C572   1.410       .  A
C568        C569   1.398       .  A
C568        H577   1.084       .  S
C569        C570   1.408       .  A
C569        H578   1.082       .  S
C570        C573   1.491       .  S
C570        C571   1.404       .  A
C571        C572   1.402       .  A
C571        H579   1.083       .  S
C572        H580   1.080       .  S
C573        H581   1.087       .  S
C573        C574   1.346       .  D
C574        H582   1.085       .  S
C575        H583   1.087       .  S
C575        C576   1.348       .  D
C576        H584   1.084       .  S
C585        C593   1.483       .  S
C585        C586   1.404       .  A
C585        C590   1.405       .  A
C586        C587   1.396       .  A
C586        H595   1.084       .  S
C587        C588   1.406       .  A
C587        H596   1.081       .  S
C588        C591   1.488       .  S
C588        C589   1.406       .  A
C589        C590   1.400       .  A
C589        H597   1.083       .  S
C590        H598   1.081       .  S
C591        H599   1.087       .  S
C591        C592   1.348       .  D
C592        H600   1.084       .  S
C593        H601   1.088       .  S
C593        C594   1.350       .  D
C594        H602   1.085       .  S
C603        C611   1.485       .  S
C603        C604   1.404       .  A
C603        C608   1.406       .  A
C604        C605   1.399       .  A
C604        H613   1.083       .  S
C605        C606   1.406       .  A
C605        H614   1.082       .  S
C606        C609   1.485       .  S
C606        C607   1.404       .  A
C607        C608   1.398       .  A
C607        H615   1.083       .  S
C608        H616   1.082       .  S
C609        H617   1.087       .  S
C609        C610   1.347       .  D
C610        H618   1.085       .  S
C611        H619   1.087       .  S
C611        C612   1.348       .  D
C612        H620   1.085       .  S
C621        C629   1.487       .  S
C621        C622   1.406       .  A
C621        C626   1.405       .  A
C622        C623   1.401       .  A
C622        H631   1.083       .  S
C623        C624   1.407       .  A
C623        H632   1.081       .  S
C624        C627   1.488       .  S
C624        C625   1.405       .  A
C625        C626   1.397       .  A
C625        H633   1.083       .  S
C626        H634   1.081       .  S
C627        H635   1.087       .  S
C627        C628   1.350       .  D
C628        H636   1.084       .  S
C629        H637   1.087       .  S
C629        C630   1.350       .  D
C630        H638   1.085       .  S
C639        C647   1.481       .  S
C639        C640   1.403       .  A
C639        C644   1.405       .  A
C640        C641   1.398       .  A
C640        H649   1.084       .  S
C641        C642   1.406       .  A
C641        H650   1.082       .  S
C642        C645   1.481       .  S
C642        C643   1.403       .  A
C643        C644   1.397       .  A
C643        H651   1.083       .  S
C644        H652   1.082       .  S
C645        H653   1.087       .  S
C645        C646   1.345       .  D
C646        H654   1.086       .  S
C647        H655   1.087       .  S
C647        C648   1.347       .  D
C648        H656   1.085       .  S
C657        C665   1.495       .  S
C657        C658   1.406       .  A
C657        C662   1.407       .  A
C658        C659   1.403       .  A
C658        H667   1.083       .  S
C659        C660   1.409       .  A
C659        H668   1.080       .  S
C660        C663   1.495       .  S
C660        C661   1.405       .  A
C661        C662   1.399       .  A
C661        H669   1.083       .  S
C662        H670   1.081       .  S
C663        H671   1.087       .  S
C663        C664   1.350       .  D
C664        H672   1.083       .  S
C665        H673   1.087       .  S
C665        C666   1.350       .  D
C666        H674   1.084       .  S
C675        C683   1.488       .  S
C675        C676   1.404       .  A
C675        C680   1.410       .  A
C676        C677   1.394       .  A
C676        H685   1.084       .  S
C677        C678   1.405       .  A
C677        H686   1.082       .  S
C678        C681   1.483       .  S
C678        C679   1.402       .  A
C679        C680   1.400       .  A
C679        H687   1.083       .  S
C680        H688   1.079       .  S
C681        H689   1.087       .  S
C681        C682   1.345       .  D
C682        H690   1.086       .  S
C683        H691   1.087       .  S
C683        C684   1.347       .  D
C684        H692   1.083       .  S
C693        C701   1.486       .  S
C693        C694   1.406   1_565  A
C693        C698   1.403       .  A
C694        C695   1.405       .  A
C694        H703   1.083       .  S
C695        C696   1.408   1_545  A
C695        H704   1.081       .  S
C696        C699   1.489       .  S
C696        C697   1.405       .  A
C697        C698   1.393       .  A
C697        H705   1.084       .  S
C698        H706   1.083       .  S
C699        H707   1.087       .  S
C699        C700   1.352   1_565  D
C700        H708   1.084       .  S
C701        H709   1.087   1_565  S
C701        C702   1.347       .  D
C702        H710   1.086       .  S
C711        C719   1.487       .  S
C711        C712   1.405   1_565  A
C711        C716   1.406       .  A
C712        C713   1.400       .  A
C712        H721   1.083       .  S
C713        C714   1.406   1_545  A
C713        H722   1.081       .  S
C714        C717   1.486       .  S
C714        C715   1.405       .  A
C715        C716   1.398       .  A
C715        H723   1.083       .  S
C716        H724   1.081       .  S
C717        H725   1.087       .  S
C717        C718   1.350   1_565  D
C718        H726   1.085       .  S
C719        H727   1.087       .  S
C719        C720   1.349       .  D
C720        H728   1.085       .  S
C729        C737   1.487       .  S
C729        C730   1.401       .  A
C729        C734   1.409       .  A
C730        C731   1.397       .  A
C730        H739   1.083       .  S
C731        C732   1.410       .  A
C731        H740   1.081       .  S
C732        C735   1.491       .  S
C732        C733   1.403       .  A
C733        C734   1.401       .  A
C733        H741   1.084       .  S
C734        H742   1.082       .  S
C735        H743   1.087       .  S
C735        C736   1.344       .  D
C736        H744   1.085       .  S
C737        H745   1.087       .  S
C737        C738   1.343       .  D
C738        H746   1.086       .  S
C747        C755   1.495       .  S
C747        C748   1.403       .  A
C747        C752   1.410       .  A
C748        C749   1.401       .  A
C748        H757   1.083       .  S
C749        C750   1.411       .  A
C749        H758   1.080       .  S
C750        C753   1.496       .  S
C750        C751   1.404       .  A
C751        C752   1.401       .  A
C751        H759   1.083       .  S
C752        H760   1.081       .  S
C753        H761   1.087       .  S
C753        C754   1.348       .  D
C754        H762   1.083       .  S
C755        H763   1.087       .  S
C755        C756   1.345       .  D
C756        H764   1.085       .  S
C765        C773   1.489       .  S
C765        C766   1.405       .  A
C765        C770   1.407       .  A
C766        C767   1.400       .  A
C766        H775   1.084       .  S
C767        C768   1.406       .  A
C767        H776   1.082       .  S
C768        C771   1.489       .  S
C768        C769   1.405       .  A
C769        C770   1.401       .  A
C769        H777   1.084       .  S
C770        H778   1.082       .  S
C771        H779   1.087       .  S
C771        C772   1.349       .  D
C772        H780   1.086       .  S
C773        H781   1.087       .  S
C773        C774   1.349       .  D
C774        H782   1.085       .  S
C783        C791   1.490       .  S
C783        C784   1.403       .  A
C783        C788   1.408       .  A
C784        C785   1.401       .  A
C784        H793   1.084       .  S
C785        C786   1.409       .  A
C785        H794   1.082       .  S
C786        C789   1.492       .  S
C786        C787   1.404       .  A
C787        C788   1.402       .  A
C787        H795   1.084       .  S
C788        H796   1.082       .  S
C789        H797   1.087       .  S
C789        C790   1.348       .  D
C790        H798   1.086       .  S
C791        H799   1.087       .  S
C791        C792   1.346       .  D
C792        H800   1.086       .  S
C801        C809   1.489       .  S
C801        C802   1.404       .  A
C801        C806   1.407       .  A
C802        C803   1.399       .  A
C802        H811   1.084       .  S
C803        C804   1.408       .  A
C803        H812   1.080       .  S
C804        C807   1.490       .  S
C804        C805   1.404       .  A
C805        C806   1.398       .  A
C805        H813   1.084       .  S
C806        H814   1.080       .  S
C807        H815   1.088       .  S
C807        C808   1.348       .  D
C808        H816   1.084       .  S
C809        H817   1.087       .  S
C809        C810   1.349       .  D
C810        H818   1.084   1_556  S
C819        C827   1.478       .  S
C819        C820   1.402       .  A
C819        C824   1.405       .  A
C820        C821   1.396       .  A
C820        H829   1.084       .  S
C821        C822   1.407       .  A
C821        H830   1.082       .  S
C822        C825   1.481       .  S
C822        C823   1.403       .  A
C823        C824   1.397       .  A
C823        H831   1.084       .  S
C824        H832   1.082       .  S
C825        H833   1.087       .  S
C825        C826   1.344       .  D
C826        H834   1.086       .  S
C827        H835   1.087       .  S
C827        C828   1.346       .  D
C828        H836   1.086       .  S
C837        C845   1.481       .  S
C837        C838   1.403       .  A
C837        C842   1.405       .  A
C838        C839   1.399       .  A
C838        H847   1.084       .  S
C839        C840   1.406       .  A
C839        H848   1.081       .  S
C840        C843   1.480       .  S
C840        C841   1.403       .  A
C841        C842   1.395       .  A
C841        H849   1.084       .  S
C842        H850   1.082       .  S
C843        H851   1.088       .  S
C843        C844   1.348       .  D
C844        H852   1.085       .  S
C845        H853   1.087       .  S
C845        C846   1.345       .  D
C846        H854   1.086       .  S
C855        C863   1.485       .  S
C855        C856   1.403       .  A
C855        C860   1.407       .  A
C856        C857   1.400       .  A
C856        H865   1.083       .  S
C857        C858   1.407       .  A
C857        H866   1.083       .  S
C858        C861   1.483       .  S
C858        C859   1.402       .  A
C859        C860   1.399       .  A
C859        H867   1.083       .  S
C860        H868   1.082       .  S
C861        H869   1.087       .  S
C861        C862   1.346       .  D
C862        H870   1.086       .  S
C863        H871   1.087       .  S
C863        C864   1.344       .  D
C864        H872   1.087       .  S
C873        C881   1.487       .  S
C873        C874   1.404       .  A
C873        C878   1.408       .  A
C874        C875   1.399       .  A
C874        H883   1.084       .  S
C875        C876   1.406       .  A
C875        H884   1.082       .  S
C876        C879   1.485       .  S
C876        C877   1.402       .  A
C877        C878   1.399       .  A
C877        H885   1.084       .  S
C878        H886   1.081       .  S
C879        H887   1.087       .  S
C879        C880   1.344       .  D
C880        H888   1.087       .  S
C881        H889   1.087       .  S
C881        C882   1.348       .  D
C882        H890   1.085       .  S
C891        C899   1.490       .  S
C891        C892   1.403       .  A
C891        C896   1.408       .  A
C892        C893   1.400       .  A
C892        H901   1.084       .  S
C893        C894   1.409       .  A
C893        H902   1.080       .  S
C894        C897   1.492       .  S
C894        C895   1.404       .  A
C895        C896   1.398       .  A
C895        H903   1.084       .  S
C896        H904   1.081       .  S
C897        H905   1.088       .  S
C897        C898   1.348       .  D
C898        H906   1.084       .  S
C899        H907   1.087       .  S
C899        C900   1.347       .  D
C900        H908   1.085       .  S
C909        C917   1.486       .  S
C909        C910   1.402       .  A
C909        C914   1.410       .  A
C910        C911   1.394       .  A
C910        H919   1.084       .  S
C911        C912   1.406       .  A
C911        H920   1.083       .  S
C912        C915   1.485       .  S
C912        C913   1.402       .  A
C913        C914   1.401       .  A
C913        H921   1.083       .  S
C914        H922   1.081       .  S
C915        H923   1.087       .  S
C915        C916   1.343       .  D
C916        H924   1.087       .  S
C917        H925   1.087       .  S
C917        C918   1.346       .  D
C918        H926   1.084       .  S
C927        C935   1.484       .  S
C927        C928   1.402       .  A
C927        C932   1.407       .  A
C928        C929   1.396       .  A
C928        H937   1.083       .  S
C929        C930   1.407       .  A
C929        H938   1.082       .  S
C930        C933   1.485       .  S
C930        C931   1.404       .  A
C931        C932   1.400       .  A
C931        H939   1.083       .  S
C932        H940   1.082       .  S
C933        H941   1.087       .  S
C933        C934   1.346       .  D
C934        H942   1.085       .  S
C935        H943   1.087       .  S
C935        C936   1.345       .  D
C936        H944   1.085       .  S
C945        C953   1.486       .  S
C945        C946   1.402       .  A
C945        C950   1.409       .  A
C946        C947   1.398       .  A
C946        H955   1.084       .  S
C947        C948   1.408       .  A
C947        H956   1.081       .  S
C948        C951   1.487       .  S
C948        C949   1.402       .  A
C949        C950   1.398       .  A
C949        H957   1.084       .  S
C950        H958   1.082       .  S
C951        H959   1.087       .  S
C951        C952   1.344       .  D
C952        H960   1.085       .  S
C953        H961   1.087       .  S
C953        C954   1.342       .  D
C954        H962   1.085       .  S
C963        C971   1.487       .  S
C963        C964   1.405       .  A
C963        C968   1.405       .  A
C964        C965   1.402       .  A
C964        H973   1.083       .  S
C965        C966   1.407       .  A
C965        H974   1.081       .  S
C966        C969   1.486       .  S
C966        C967   1.404       .  A
C967        C968   1.397       .  A
C967        H975   1.084       .  S
C968        H976   1.082       .  S
C969        H977   1.087       .  S
C969        C970   1.350       .  D
C970        H978   1.085       .  S
C971        H979   1.087       .  S
C971        C972   1.345       .  D
C972        H980   1.086       .  S
C981        C989   1.485       .  S
C981        C982   1.405       .  A
C981        C986   1.405       .  A
C982        C983   1.399       .  A
C982        H991   1.083       .  S
C983        C984   1.406       .  A
C983        H992   1.081       .  S
C984        C987   1.488       .  S
C984        C985   1.406       .  A
C985        C986   1.400       .  A
C985        H993   1.083       .  S
C986        H994   1.082       .  S
C987        H995   1.087       .  S
C987        C988   1.349       .  D
C988        H996   1.085       .  S
C989        H997   1.088       .  S
C989        C990   1.350       .  D
C990        H998   1.085       .  S
C999       C1007   1.487       .  S
C999       C1000   1.402       .  A
C999       C1004   1.408       .  A
C1000      C1001   1.400       .  A
C1000      H1009   1.083       .  S
C1001      C1002   1.408       .  A
C1001      H1010   1.082       .  S
C1002      C1005   1.486       .  S
C1002      C1003   1.402       .  A
C1003      C1004   1.400       .  A
C1003      H1011   1.084       .  S
C1004      H1012   1.083       .  S
C1005      H1013   1.087       .  S
C1005      C1006   1.344       .  D
C1006      H1014   1.086       .  S
C1007      H1015   1.087       .  S
C1007      C1008   1.342       .  D
C1008      H1016   1.087       .  S
C1017      C1025   1.485       .  S
C1017      C1018   1.404       .  A
C1017      C1022   1.407       .  A
C1018      C1019   1.394       .  A
C1018      H1027   1.084       .  S
C1019      C1020   1.405       .  A
C1019      H1028   1.081       .  S
C1020      C1023   1.486       .  S
C1020      C1021   1.406       .  A
C1021      C1022   1.401       .  A
C1021      H1029   1.083       .  S
C1022      H1030   1.081       .  S
C1023      H1031   1.087       .  S
C1023      C1024   1.348       .  D
C1024      H1032   1.084       .  S
C1025      H1033   1.087       .  S
C1025      C1026   1.349       .  D
C1026      H1034   1.084       .  S
C1035      C1043   1.489       .  S
C1035      C1036   1.401       .  A
C1035      C1040   1.409       .  A
C1036      C1037   1.398       .  A
C1036      H1045   1.083       .  S
C1037      C1038   1.411       .  A
C1037      H1046   1.081       .  S
C1038      C1041   1.493       .  S
C1038      C1039   1.403       .  A
C1039      C1040   1.401       .  A
C1039      H1047   1.083       .  S
C1040      H1048   1.082       .  S
C1041      H1049   1.087       .  S
C1041      C1042   1.344       .  D
C1042      H1050   1.085       .  S
C1043      H1051   1.087       .  S
C1043      C1044   1.343       .  D
C1044      H1052   1.086       .  S
C1053      C1061   1.492       .  S
C1053      C1054   1.404       .  A
C1053      C1058   1.412       .  A
C1054      C1055   1.399       .  A
C1054      H1063   1.083       .  S
C1055      C1056   1.408       .  A
C1055      H1064   1.082       .  S
C1056      C1059   1.484       .  S
C1056      C1057   1.399       .  A
C1057      C1058   1.397       .  A
C1057      H1065   1.084       .  S
C1058      H1066   1.080       .  S
C1059      H1067   1.087       .  S
C1059      C1060   1.341       .  D
C1060      H1068   1.086       .  S
C1061      H1069   1.087       .  S
C1061      C1062   1.343       .  D
C1062      H1070   1.083       .  S
C1071      C1079   1.479       .  S
C1071      C1072   1.403       .  A
C1071      C1076   1.405       .  A
C1072      C1073   1.398       .  A
C1072      H1081   1.084       .  S
C1073      C1074   1.405       .  A
C1073      H1082   1.083       .  S
C1074      C1077   1.482       .  S
C1074      C1075   1.403       .  A
C1075      C1076   1.399       .  A
C1075      H1083   1.083       .  S
C1076      H1084   1.083       .  S
C1077      H1085   1.087       .  S
C1077      C1078   1.343       .  D
C1078      H1086   1.087       .  S
C1079      H1087   1.087       .  S
C1079      C1080   1.346       .  D
C1080      H1088   1.086       .  S
C1089      C1097   1.491       .  S
C1089      C1090   1.404       .  A
C1089      C1094   1.407       .  A
C1090      C1091   1.401       .  A
C1090      H1099   1.084       .  S
C1091      C1092   1.409       .  A
C1091      H1100   1.080       .  S
C1092      C1095   1.495       .  S
C1092      C1093   1.406       .  A
C1093      C1094   1.401       .  A
C1093      H1101   1.083       .  S
C1094      H1102   1.081       .  S
C1095      H1103   1.087       .  S
C1095      C1096   1.349       .  D
C1096      H1104   1.084       .  S
C1097      H1105   1.087       .  S
C1097      C1098   1.348       .  D
C1098      H1106   1.085       .  S
C1107      C1115   1.489       .  S
C1107      C1108   1.400       .  A
C1107      C1112   1.410       .  A
C1108      C1109   1.398       .  A
C1108      H1117   1.083       .  S
C1109      C1110   1.412       .  A
C1109      H1118   1.081       .  S
C1110      C1113   1.496       .  S
C1110      C1111   1.403       .  A
C1111      C1112   1.402       .  A
C1111      H1119   1.083       .  S
C1112      H1120   1.082       .  S
C1113      H1121   1.086       .  S
C1113      C1114   1.343       .  D
C1114      H1122   1.084       .  S
C1115      H1123   1.087       .  S
C1115      C1116   1.344       .  D
C1116      H1124   1.086       .  S
C1125      C1133   1.482       .  S
C1125      C1126   1.405       .  A
C1125      C1130   1.404   1_465  A
C1126      C1127   1.399       .  A
C1126      H1135   1.084       .  S
C1127      C1128   1.406   1_455  A
C1127      H1136   1.081       .  S
C1128      C1131   1.481       .  S
C1128      C1129   1.404   1_565  A
C1129      C1130   1.393       .  A
C1129      H1137   1.084       .  S
C1130      H1138   1.082       .  S
C1131      H1139   1.087   1_565  S
C1131      C1132   1.349       .  D
C1132      H1140   1.084       .  S
C1133      H1141   1.088       .  S
C1133      C1134   1.346   1_465  D
C1134      H1142   1.086       .  S
C1143      C1151   1.484       .  S
C1143      C1144   1.404   1_455  A
C1143      C1148   1.406   1_545  A
C1144      C1145   1.397   1_554  A
C1144      H1153   1.084       .  S
C1145      C1146   1.406   1_655  A
C1145      H1154   1.082       .  S
C1146      C1149   1.488       .  S
C1146      C1147   1.406   1_545  A
C1147      C1148   1.402   1_556  A
C1147      H1155   1.084       .  S
C1148      H1156   1.082       .  S
C1149      H1157   1.087   1_545  S
C1149      C1150   1.347   1_455  D
C1150      H1158   1.085       .  S
C1151      H1159   1.087       .  S
C1151      C1152   1.350   1_545  D
C1152      H1160   1.085       .  S
C1161      C1169   1.491       .  S
C1161      C1162   1.402       .  A
C1161      C1166   1.409       .  A
C1162      C1163   1.398       .  A
C1162      H1171   1.084       .  S
C1163      C1164   1.410       .  A
C1163      H1172   1.080       .  S
C1164      C1167   1.496       .  S
C1164      C1165   1.405       .  A
C1165      C1166   1.402       .  A
C1165      H1173   1.083       .  S
C1166      H1174   1.081       .  S
C1167      H1175   1.087       .  S
C1167      C1168   1.347       .  D
C1168      H1176   1.083       .  S
C1169      H1177   1.087       .  S
C1169      C1170   1.346       .  D
C1170      H1178   1.085       .  S
C1179      C1187   1.489       .  S
C1179      C1180   1.401       .  A
C1179      C1184   1.409       .  A
C1180      C1181   1.398       .  A
C1180      H1189   1.083       .  S
C1181      C1182   1.411       .  A
C1181      H1190   1.080       .  S
C1182      C1185   1.493       .  S
C1182      C1183   1.403       .  A
C1183      C1184   1.400       .  A
C1183      H1191   1.083       .  S
C1184      H1192   1.081       .  S
C1185      H1193   1.086       .  S
C1185      C1186   1.345       .  D
C1186      H1194   1.083       .  S
C1187      H1195   1.087       .  S
C1187      C1188   1.344       .  D
C1188      H1196   1.085       .  S
C1197      C1205   1.495       .  S
C1197      C1198   1.406       .  A
C1197      C1202   1.408       .  A
C1198      C1199   1.401       .  A
C1198      H1207   1.083       .  S
C1199      C1200   1.408       .  A
C1199      H1208   1.079       .  S
C1200      C1203   1.496       .  S
C1200      C1201   1.407       .  A
C1201      C1202   1.401       .  A
C1201      H1209   1.084       .  S
C1202      H1210   1.080       .  S
C1203      H1211   1.087       .  S
C1203      C1204   1.352       .  D
C1204      H1212   1.083       .  S
C1205      H1213   1.087       .  S
C1205      C1206   1.351       .  D
C1206      H1214   1.083       .  S
C1215      C1223   1.488       .  S
C1215      C1216   1.404       .  A
C1215      C1220   1.407       .  A
C1216      C1217   1.399       .  A
C1216      H1225   1.083       .  S
C1217      C1218   1.408       .  A
C1217      H1226   1.080       .  S
C1218      C1221   1.488       .  S
C1218      C1219   1.404       .  A
C1219      C1220   1.396       .  A
C1219      H1227   1.084       .  S
C1220      H1228   1.081       .  S
C1221      H1229   1.087       .  S
C1221      C1222   1.349       .  D
C1222      H1230   1.083       .  S
C1223      H1231   1.087       .  S
C1223      C1224   1.347       .  D
C1224      H1232   1.084       .  S
