geometry optimzed in LAMMPS
_audit_creation_date              2020-11-30 
_audit_creation_method            'lammps2cif' 
_symmetry_space_group_name_H-M    'P1' 
_symmetry_Int_Tables_number       1 
_symmetry_cell_setting            triclinic 
loop_ 
_symmetry_equiv_pos_as_xyz 
  x,y,z 
_cell_length_a                    35.17614117 
_cell_length_b                    35.323376107904146 
_cell_length_c                    26.762136853659136 
_cell_angle_alpha                 90.12221398362956 
_cell_angle_beta                  89.82240421748844 
_cell_angle_gamma                 90.42092832940017 
loop_ 
_atom_site_label 
_atom_site_type_symbol 
_atom_site_fract_x 
_atom_site_fract_y 
_atom_site_fract_z 
_atom_site_charge 
O1          O  0.33872652  0.24671907  0.28372408    -0.82400
C2          C  0.31367032  0.11413352  0.40155061     0.97000
O3          O  0.34125562  0.11999753  0.37219333    -0.71500
O4          O  0.31659788  0.13701129  0.28011645    -0.75100
Al5        Al  0.35120706  0.16112306  0.32593591     1.49000
C6          C  0.29860776  0.15476199  0.24664037     0.92200
O7          O  0.24259485  0.20722297  0.32652193    -0.81300
O8          O  0.31519977  0.24523308  0.42309223    -0.74900
Al9        Al  0.29233416  0.22451644  0.30798208     1.90100
O10         O  0.25292211  0.20115009  0.40688351    -0.73900
O11         O  0.35678951  0.18503033  0.43712341    -0.73800
O12         O  0.29310533  0.14095466  0.41569020    -0.79400
O13         O  0.38934167  0.18307392  0.36714173    -0.77600
O14         O  0.31606604  0.19283770  0.34953834    -1.13800
O15         O  0.36945047  0.19376587  0.27483894    -0.73000
C16         C  0.36521151  0.22814342  0.26365753     0.97800
C17         C  0.23033769  0.20431834  0.37077729     0.94100
Al18       Al  0.30545681  0.19284444  0.41485192     1.55600
O19         O  0.29056476  0.18940013  0.25266412    -0.77600
C20         C  0.38767618  0.18909100  0.41352411     0.98300
C21         C  0.30076010  0.27168179  0.39826135     0.93200
O22         O  0.28888904  0.26613684  0.35434421    -0.82900
C23         C  0.25848841  0.03778074  0.99036148     0.02600
C24         C  0.26487025  0.04941303  0.04029584    -0.13600
C25         C  0.25384258  0.08558342  0.05709096     0.00100
C26         C  0.23458823  0.10942754  0.02375749    -0.12100
C27         C  0.22735297  0.09844902  0.97422105     0.02600
C28         C  0.23886410  0.06242588  0.95810743    -0.11500
H29         H  0.27950753  0.03081469  0.06569216     0.08100
H30         H  0.22650966  0.13754751  0.03589604     0.05700
H31         H  0.23366030  0.05419017  0.91972456     0.05500
C32         C  0.47256665  0.25637040  0.00208893     0.02600
C33         C  0.46671998  0.25862387  0.05400979    -0.13600
C34         C  0.43058751  0.26685850  0.07360821     0.00100
C35         C  0.40136937  0.27632124  0.04042991    -0.12100
C36         C  0.40713014  0.27540608  0.98841804     0.02600
C37         C  0.44268369  0.26486200  0.96944688    -0.11500
H38         H  0.48968825  0.25167416  0.07901300     0.08100
H39         H  0.37309682  0.28201643  0.05496175     0.05700
H40         H  0.44663720  0.26177731  0.92947380     0.05500
O41         O  0.26934271  0.83593018  0.77105616    -0.82400
C42         C  0.38341575  0.81673949  0.91763769     0.97000
O43         O  0.38234057  0.84406100  0.88723892    -0.71500
O44         O  0.37644074  0.81506329  0.79625731    -0.75100
Al45       Al  0.34817102  0.85218748  0.83170399     1.49000
C46         C  0.36293718  0.79372665  0.76265665     0.92200
O47         O  0.29944095  0.74440993  0.83557893    -0.81300
O48         O  0.25130610  0.82596011  0.91050735    -0.74900
Al49       Al  0.28625341  0.79212806  0.80664516     1.90100
O50         O  0.29233760  0.76072353  0.91407678    -0.73900
O51         O  0.31181907  0.86568169  0.93503589    -0.73800
O52         O  0.35361142  0.79913065  0.92946491    -0.79400
O53         O  0.32298864  0.89331328  0.86326322    -0.77600
O54         O  0.31250651  0.81911856  0.85144492    -1.13800
O55         O  0.32331921  0.86701394  0.77181384    -0.73000
C56         C  0.29105197  0.86102025  0.75284261     0.97800
C57         C  0.29568394  0.73555854  0.88101307     0.94100
Al58       Al  0.30322952  0.81349504  0.91664394     1.55600
O59         O  0.32791283  0.78556414  0.76160659    -0.77600
C60         C  0.31233064  0.89501794  0.90816397     0.98300
C61         C  0.22801070  0.80915027  0.88235701     0.93200
O62         O  0.23941756  0.79312334  0.84281827    -0.82900
C63         C  0.47040888  0.76832103  0.49951586     0.02600
C64         C  0.44216292  0.75374232  0.46775862    -0.13600
C65         C  0.40660479  0.74294572  0.48708300     0.00100
C66         C  0.39950405  0.74692524  0.53841713    -0.12100
C67         C  0.42732806  0.76165542  0.57064039     0.02600
C68         C  0.46314510  0.77150402  0.55102294    -0.11500
H69         H  0.44777674  0.75111768  0.42806509     0.08100
H70         H  0.37157919  0.73977000  0.55304319     0.05700
H71         H  0.48497249  0.78273919  0.57546212     0.05500
C72         C  0.26961146  0.96971087  0.48853903     0.02600
C73         C  0.27110780  0.96177050  0.54034336    -0.13600
C74         C  0.25979343  0.92601088  0.55882113     0.00100
C75         C  0.24485989  0.89902891  0.52583928    -0.12100
C76         C  0.24247550  0.90646069  0.47456817     0.02600
C77         C  0.25493391  0.94158846  0.45624684    -0.11500
H78         H  0.28117608  0.98298324  0.56637947     0.08100
H79         H  0.23664128  0.87135236  0.53987595     0.05700
H80         H  0.25354200  0.94671416  0.41641798     0.05500
O81         O  0.65726343  0.77124252  0.28513641    -0.82400
C82         C  0.69048476  0.89686621  0.41382378     0.97000
O83         O  0.66407831  0.89429840  0.38227386    -0.71500
O84         O  0.69045029  0.87861790  0.29170955    -0.75100
Al85       Al  0.65223508  0.85616058  0.33279027     1.49000
C86         C  0.70592536  0.86044290  0.25651460     0.92200
O87         O  0.75567870  0.80099508  0.33163053    -0.81300
O88         O  0.68043879  0.76460593  0.42423104    -0.74900
Al89       Al  0.70520819  0.78833014  0.31142953     1.90100
O90         O  0.74510199  0.80682045  0.41232535    -0.73900
O91         O  0.64092975  0.82518168  0.44044986    -0.73800
O92         O  0.70738395  0.86749849  0.42712906    -0.79400
O93         O  0.61100031  0.83655836  0.37025048    -0.77600
O94         O  0.68352872  0.82023897  0.35499885    -1.13800
O95         O  0.63283340  0.82751456  0.27759487    -0.73000
C96         C  0.63386346  0.79325760  0.26440393     0.97800
C97         C  0.76763493  0.80287602  0.37601180     0.94100
Al98       Al  0.69257643  0.81662790  0.42026088     1.55600
O99         O  0.71024053  0.82497600  0.25928801    -0.77600
C100        C  0.61048330  0.82671405  0.41547683     0.98300
C101        C  0.69415242  0.73848503  0.39805908     0.93200
O102        O  0.70559981  0.74476600  0.35418295    -0.82900
C103        C  0.73693493  0.97038987  0.99588843     0.02600
C104        C  0.75935904  0.94626219  0.96584210    -0.13600
C105        C  0.77096642  0.91062372  0.98361109     0.00100
C106        C  0.76004322  0.89973473  0.03195575    -0.12100
C107        C  0.73863152  0.92361844  0.06274383     0.02600
C108        C  0.72751293  0.95911179  0.04485227    -0.11500
H109        H  0.76723934  0.95497901  0.92843039     0.08100
H110        H  0.76706079  0.87173767  0.04538093     0.05700
H111        H  0.71024077  0.97726099  0.06829431     0.05500
C112        C  0.52395584  0.76554594  0.00386765     0.02600
C113        C  0.53096090  0.76415102  0.05566575    -0.13600
C114        C  0.56702134  0.75387006  0.07378478     0.00100
C115        C  0.59532243  0.74425435  0.03911096    -0.12100
C116        C  0.58875953  0.74563242  0.98728391     0.02600
C117        C  0.55293899  0.75621637  0.97000617    -0.11500
H118        H  0.50878687  0.77230737  0.08163313     0.08100
H119        H  0.62370782  0.73824966  0.05239390     0.05700
H120        H  0.54815319  0.75943880  0.93026727     0.05500
O121        O  0.72862618  0.17220877  0.77940847    -0.82400
C122        C  0.61354300  0.19473649  0.92492920     0.97000
O123        O  0.61458033  0.16754332  0.89417321    -0.71500
O124        O  0.62149345  0.19282683  0.80234398    -0.75100
Al125      Al  0.64930340  0.15685681  0.84009480     1.49000
C126        C  0.63483512  0.21384083  0.76843495     0.92200
O127        O  0.69732785  0.26467539  0.84119454    -0.81300
O128        O  0.74564764  0.18343380  0.91698823    -0.74900
Al129      Al  0.71129876  0.21660028  0.81345445     1.90100
O130        O  0.70528614  0.24947333  0.91977154    -0.73900
O131        O  0.68526051  0.14532871  0.94405585    -0.73800
O132        O  0.64383740  0.21146868  0.93709051    -0.79400
O133        O  0.67324617  0.11625400  0.87411033    -0.77600
O134        O  0.68484050  0.19021426  0.85886734    -1.13800
O135        O  0.67552345  0.13982216  0.78194953    -0.73000
C136        C  0.70790443  0.14554489  0.76307702     0.97800
C137        C  0.70084813  0.27417701  0.88645153     0.94100
Al138      Al  0.69412221  0.19679155  0.92379595     1.55600
O139        O  0.66985270  0.22225308  0.76770529    -0.77600
C140        C  0.68414953  0.11516964  0.91888509     0.98300
C141        C  0.76951023  0.19946100  0.88872376     0.93200
O142        O  0.75848367  0.21644985  0.84988956    -0.82900
C143        C  0.52531971  0.24325411  0.50855396     0.02600
C144        C  0.53302457  0.24155520  0.56016428    -0.13600
C145        C  0.56921014  0.25142388  0.57876929     0.00100
C146        C  0.59748321  0.26297388  0.54468466    -0.12100
C147        C  0.58969912  0.26725573  0.49361413     0.02600
C148        C  0.55338207  0.25760758  0.47588389    -0.11500
H149        H  0.51095820  0.23211833  0.58563911     0.08100
H150        H  0.62618131  0.26811881  0.55772461     0.05700
H151        H  0.54717209  0.26049982  0.43645671     0.05500
C152        C  0.74308874  0.03843301  0.50171488     0.02600
C153        C  0.75594798  0.06740641  0.47005997    -0.13600
C154        C  0.76676798  0.10256796  0.48971247     0.00100
C155        C  0.76475262  0.10890404  0.54135580    -0.12100
C156        C  0.75178717  0.08033173  0.57381064     0.02600
C157        C  0.74105646  0.04498042  0.55358881    -0.11500
H158        H  0.75648274  0.06295768  0.42995869     0.08100
H159        H  0.77096433  0.13692495  0.55583675     0.05700
H160        H  0.72986475  0.02302852  0.57792659     0.05500
O161        O  0.76420028  0.33833745  0.27830951    -0.82400
C162        C  0.88435385  0.32460001  0.41793941     0.97000
O163        O  0.88052161  0.35099814  0.38648018    -0.71500
O164        O  0.87303534  0.32234207  0.29580732    -0.75100
Al165      Al  0.84425499  0.35782512  0.33340716     1.49000
C166        C  0.85963063  0.30064622  0.26260035     0.92200
O167        O  0.80039456  0.24821829  0.33938377    -0.81300
O168        O  0.75146031  0.32789017  0.41743359    -0.74900
Al169      Al  0.78424490  0.29523635  0.31172700     1.90100
O170        O  0.79442520  0.26453958  0.41813286    -0.73900
O171        O  0.81178376  0.36937693  0.43894194    -0.73800
O172        O  0.85590075  0.30502605  0.43063367    -0.79400
O173        O  0.81847179  0.39750126  0.36670513    -0.77600
O174        O  0.81091527  0.32319273  0.35504531    -1.13800
O175        O  0.81645184  0.37201518  0.27595851    -0.73000
C176        C  0.78341137  0.36526606  0.26006731     0.97800
C177        C  0.79662664  0.23950501  0.38481348     0.94100
Al178      Al  0.80417484  0.31724438  0.42062655     1.55600
O179        O  0.82496969  0.29062396  0.26365800    -0.77600
C180        C  0.80971627  0.39866250  0.41226305     0.98300
C181        C  0.72749648  0.31028623  0.39096069     0.93200
O182        O  0.73801562  0.29398961  0.35104683    -0.82900
C183        C  0.96724698  0.26803058  0.00008413     0.02600
C184        C  0.94200274  0.24611332  0.97134985    -0.13600
C185        C  0.90740003  0.23320214  0.99144654     0.00100
C186        C  0.89930011  0.24032208  0.04208394    -0.12100
C187        C  0.92544610  0.25951345  0.07287757     0.02600
C188        C  0.95903842  0.27397894  0.05116620    -0.11500
H189        H  0.94880008  0.23981733  0.93274025     0.08100
H190        H  0.87174245  0.23243139  0.05709906     0.05700
H191        H  0.97858030  0.29034940  0.07393199     0.05500
C192        C  0.74354459  0.47876366  0.00515498     0.02600
C193        C  0.73012444  0.45058339  0.97217196    -0.13600
C194        C  0.72078375  0.41422549  0.98990645     0.00100
C195        C  0.72663110  0.40605682  0.04060440    -0.12100
C196        C  0.74001352  0.43375648  0.07385214     0.02600
C197        C  0.74742323  0.47044044  0.05614696    -0.11500
H198        H  0.72769538  0.45678942  0.93266973     0.08100
H199        H  0.72245776  0.37734576  0.05389939     0.05700
H200        H  0.75830492  0.49188908  0.08143406     0.05500
O201        O  0.16884182  0.28232088  0.76570467    -0.82400
C202        C  0.19151727  0.38869786  0.92081085     0.97000
O203        O  0.16318588  0.38874919  0.89167295    -0.71500
O204        O  0.18990779  0.38536768  0.80011208    -0.75100
Al205      Al  0.15245319  0.35680421  0.83465497     1.49000
C206        C  0.21373832  0.37351328  0.76853405     0.92200
O207        O  0.26007776  0.30426244  0.83881812    -0.81300
O208        O  0.17186137  0.25837188  0.90612176    -0.74900
Al209      Al  0.21190519  0.29520541  0.80616452     1.90100
O210        O  0.23981416  0.29286262  0.91418553    -0.73900
O211        O  0.13920339  0.32194106  0.93634108    -0.73800
O212        O  0.20845695  0.35821399  0.93053130    -0.79400
O213        O  0.11020055  0.33173791  0.86619442    -0.77600
O214        O  0.18469790  0.32025861  0.85168904    -1.13800
O215        O  0.13617926  0.33419774  0.77407115    -0.73000
C216        C  0.14310597  0.30421557  0.75051823     0.97800
C217        C  0.26660490  0.29521552  0.88353053     0.94100
Al218      Al  0.18936690  0.30898936  0.91612493     1.55600
O219        O  0.22259646  0.33890133  0.76624887    -0.77600
C220        C  0.10898754  0.32212589  0.91156347     0.98300
C221        C  0.18713737  0.23492795  0.87643055     0.93200
O222        O  0.20568560  0.24657346  0.83851898    -0.82900
C223        C  0.24809556  0.47713122  0.50707397     0.02600
C224        C  0.26252681  0.44684987  0.47832489    -0.13600
C225        C  0.27357431  0.41294222  0.50142330     0.00100
C226        C  0.27085243  0.40984956  0.55354617    -0.12100
C227        C  0.25530972  0.43894089  0.58250535     0.02600
C228        C  0.24449137  0.47261516  0.55913806    -0.11500
H229        H  0.26351444  0.44897521  0.43794444     0.08100
H230        H  0.27814741  0.38330431  0.57124438     0.05700
H231        H  0.23142784  0.49459090  0.58136323     0.05500
C232        C  0.03621064  0.28585618  0.48522746     0.02600
C233        C  0.04619672  0.28859266  0.53598686    -0.13600
C234        C  0.08180811  0.27620163  0.55276862     0.00100
C235        C  0.10766893  0.26150971  0.51793528    -0.12100
C236        C  0.09800946  0.25768095  0.46727353     0.02600
C237        C  0.06215725  0.26992038  0.45106515    -0.11500
H238        H  0.02616194  0.30041484  0.56249154     0.08100
H239        H  0.13576868  0.25327942  0.53020192     0.05700
H240        H  0.05415554  0.26630633  0.41227453     0.05500
O241        O  0.23333867  0.66679214  0.27626168    -0.82400
C242        C  0.11225370  0.68549837  0.41560542     0.97000
O243        O  0.11554364  0.65923529  0.38372142    -0.71500
O244        O  0.12467288  0.68531502  0.29178683    -0.75100
Al245      Al  0.15218228  0.65037623  0.33140275     1.49000
C246        C  0.13925763  0.70522018  0.25746110     0.92200
O247        O  0.19783987  0.75943645  0.33188549    -0.81300
O248        O  0.24502433  0.68253525  0.41472100    -0.74900
Al249      Al  0.21357676  0.71127757  0.30718985     1.90100
O250        O  0.20138608  0.74601808  0.41176082    -0.73900
O251        O  0.18505577  0.64154104  0.43720652    -0.73800
O252        O  0.14070868  0.70530212  0.42728569    -0.79400
O253        O  0.17649464  0.61104655  0.36707531    -0.77600
O254        O  0.18596766  0.68514258  0.35174847    -1.13800
O255        O  0.18034872  0.63417123  0.27465946    -0.73000
C256        C  0.21337568  0.64038146  0.25799956     0.97800
C257        C  0.19999967  0.76987908  0.37690888     0.94100
Al258      Al  0.19232598  0.69312167  0.41702652     1.55600
O259        O  0.17401471  0.71446081  0.25859637    -0.77600
C260        C  0.18545258  0.61101040  0.41256293     0.98300
C261        C  0.26909336  0.69904267  0.38725643     0.93200
O262        O  0.25900778  0.71372169  0.34642929    -0.82900
C263        C  0.03407917  0.71976824  0.99079112     0.02600
C264        C  0.04296210  0.71473795  0.04150446    -0.13600
C265        C  0.07864886  0.72579109  0.06009511     0.00100
C266        C  0.10488157  0.74284818  0.02736383    -0.12100
C267        C  0.09559117  0.75020432  0.97735026     0.02600
C268        C  0.05998256  0.73858548  0.95929471    -0.11500
H269        H  0.02185711  0.70262083  0.06642545     0.08100
H270        H  0.13277346  0.75088726  0.04108412     0.05700
H271        H  0.05193468  0.74494402  0.92121044     0.05500
C272        C  0.24908031  0.53117158  0.99741885     0.02600
C273        C  0.24447379  0.53968840  0.04835368    -0.13600
C274        C  0.25311660  0.57599173  0.06665089     0.00100
C275        C  0.26768424  0.60335674  0.03380375    -0.12100
C276        C  0.27309515  0.59522066  0.98288099     0.02600
C277        C  0.26342326  0.55902021  0.96475308    -0.11500
H278        H  0.23293687  0.51841899  0.07338492     0.08100
H279        H  0.27300289  0.63182416  0.04749330     0.05700
H280        H  0.26597363  0.55288371  0.92518583     0.05500
O281        O  0.82718707  0.72873939  0.77114771    -0.82400
C282        C  0.80294996  0.61905328  0.92212981     0.97000
O283        O  0.82949438  0.61886981  0.89015285    -0.71500
O284        O  0.80103079  0.62469505  0.79987527    -0.75100
Al285      Al  0.84016687  0.65125702  0.83394724     1.49000
C286        C  0.77958373  0.63821407  0.76683916     0.92200
O287        O  0.73510702  0.70679534  0.84088193    -0.81300
O288        O  0.82398331  0.74967757  0.90967280    -0.74900
Al289      Al  0.78342849  0.71557477  0.80917719     1.90100
O290        O  0.75539832  0.71537110  0.91702365    -0.73900
O291        O  0.85642828  0.68560287  0.93637616    -0.73800
O292        O  0.78689614  0.64983579  0.93321530    -0.79400
O293        O  0.88357161  0.67379222  0.86480183    -0.77600
O294        O  0.80965831  0.68859803  0.85350021    -1.13800
O295        O  0.85645091  0.67451759  0.77325593    -0.73000
C296        C  0.85126937  0.70629663  0.75309705     0.97800
C297        C  0.72885243  0.71558673  0.88587080     0.94100
Al298      Al  0.80596013  0.69903719  0.91842575     1.55600
O299        O  0.77244459  0.67331149  0.76580157    -0.77600
C300        C  0.88602334  0.68312606  0.91019539     0.98300
C301        C  0.80843494  0.77400253  0.88183472     0.93200
O302        O  0.78969079  0.76325100  0.84394884    -0.82900
C303        C  0.75045369  0.53394053  0.50626064     0.02600
C304        C  0.74766642  0.53736408  0.55877110    -0.13600
C305        C  0.73496605  0.57119246  0.58105794     0.00100
C306        C  0.72270690  0.60044822  0.54999661    -0.12100
C307        C  0.72393456  0.59727623  0.49783126     0.02600
C308        C  0.73810586  0.56411555  0.47612133    -0.11500
H309        H  0.75657715  0.51425871  0.58239731     0.08100
H310        H  0.71485499  0.62734798  0.56636677     0.05700
H311        H  0.74140815  0.56264623  0.43591195     0.05500
C312        C  0.96291185  0.72677994  0.48992599     0.02600
C313        C  0.95210283  0.72207671  0.54028742    -0.13600
C314        C  0.91596750  0.73341561  0.55695440     0.00100
C315        C  0.89103391  0.75040793  0.52317341    -0.12100
C316        C  0.90145460  0.75559598  0.47317409     0.02600
C317        C  0.93749293  0.74422974  0.45673281    -0.11500
H318        H  0.97151712  0.70902180  0.56631490     0.08100
H319        H  0.86279052  0.75845096  0.53539665     0.05700
H320        H  0.94550481  0.74864595  0.41804695     0.05500
C321        C  0.88816919  0.75728133  0.63657418    -0.09700
C322        C  0.90318526  0.72689574  0.60914455     0.06500
C323        C  0.90246859  0.69046140  0.63037809    -0.03500
C324        C  0.88758934  0.68518144  0.67838234    -0.07900
C325        C  0.87153876  0.71533860  0.70561023     0.05600
C326        C  0.87194173  0.75186427  0.68390516    -0.03000
Br327      Br  0.84998018  0.79563116  0.71515461    -0.02700
H328        H  0.88808721  0.78535423  0.62035145     0.09500
H329        H  0.88663985  0.65669165  0.69318284     0.07500
Br330      Br  0.91673559  0.64607305  0.59339200    -0.03100
C331        C  0.72809993  0.61897474  0.70816993    -0.09700
C332        C  0.76505919  0.61357592  0.72617717     0.06500
C333        C  0.78924095  0.58831413  0.70043835    -0.03500
C334        C  0.77744439  0.57195326  0.65535630    -0.07900
C335        C  0.74155074  0.57971694  0.63508899     0.05600
C336        C  0.71592718  0.60168281  0.66375404    -0.03000
Br337      Br  0.66406226  0.60936585  0.64414632    -0.02700
H338        H  0.70890484  0.63757278  0.72807429     0.09500
H339        H  0.79771272  0.55541779  0.63423377     0.07500
Br340      Br  0.84058353  0.57863770  0.72074900    -0.03100
C341        C  0.95617882  0.67459619  0.91227456    -0.09700
C342        C  0.92354974  0.69112365  0.93310404     0.06500
C343        C  0.92775442  0.71542091  0.97504078    -0.03500
C344        C  0.96394702  0.72386624  0.99334321    -0.07900
C345        C  0.99641030  0.70815523  0.97161646     0.05600
C346        C  0.99228877  0.68240296  0.93167911    -0.03000
Br347      Br  0.03455940  0.65513502  0.90468337    -0.02700
H348        H  0.95357582  0.65503083  0.88120660     0.09500
H349        H  0.96685000  0.74342441  0.02438989     0.07500
Br350      Br  0.88623820  0.73975046  0.00872995    -0.03100
C351        C  0.09705613  0.68395450  0.18918748    -0.09700
C352        C  0.11719808  0.71372408  0.21207973     0.06500
C353        C  0.12155874  0.74821050  0.18637519    -0.03500
C354        C  0.10666189  0.75209223  0.13831235    -0.07900
C355        C  0.08872490  0.72151999  0.11383179     0.05600
C356        C  0.08360136  0.68719560  0.14017524    -0.03000
Br357      Br  0.06358173  0.64201337  0.10968703    -0.02700
H358        H  0.09459955  0.65688776  0.20790465     0.09500
H359        H  0.11043845  0.77884079  0.11917951     0.07500
Br360      Br  0.14866977  0.79055601  0.21436138    -0.03100
C361        C  0.19824875  0.60041703  0.18433557    -0.09700
C362        C  0.22625905  0.61866334  0.21341389     0.06500
C363        C  0.26420172  0.61884299  0.19582550    -0.03500
C364        C  0.27269608  0.60324258  0.14886268    -0.07900
C365        C  0.24414607  0.58696513  0.11890055     0.05600
C366        C  0.20670575  0.58499946  0.13758809    -0.03000
Br367      Br  0.16483313  0.56573136  0.09894067    -0.02700
H368        H  0.16885555  0.59997908  0.19654509     0.09500
H369        H  0.30166102  0.60460203  0.13506686     0.07500
Br370      Br  0.30574272  0.63965247  0.23360033    -0.03100
C371        C  0.03349817  0.72442804  0.49930191    -0.09700
C372        C  0.00089158  0.71392747  0.47230353     0.06500
C373        C  0.00527581  0.69111155  0.42930715    -0.03500
C374        C  0.04163509  0.68184601  0.41214221    -0.07900
C375        C  0.07439440  0.69375639  0.43782179     0.05600
C376        C  0.06988462  0.71402344  0.48313199    -0.03000
Br377      Br  0.11149047  0.72608878  0.52687251    -0.02700
H378        H  0.03068514  0.74090191  0.53329277     0.09500
H379        H  0.04420022  0.66526382  0.37821201     0.07500
Br380      Br  0.96294596  0.66930367  0.39424478    -0.03100
C381        C  0.20851424  0.50758836  0.44094223    -0.09700
C382        C  0.23250277  0.51162283  0.48265688     0.05700
C383        C  0.23924464  0.54836356  0.50178639    -0.03500
C384        C  0.22183187  0.57959011  0.47983874    -0.07900
C385        C  0.19885350  0.57582912  0.43722755     0.05600
C386        C  0.19191505  0.53909203  0.41805863    -0.03000
Br387      Br  0.15863855  0.52936372  0.36264027    -0.02700
H388        H  0.20205296  0.47963809  0.42645447     0.09500
H389        H  0.22760537  0.60736097  0.49534313     0.07500
Br390      Br  0.27426753  0.55871450  0.55522828    -0.03100
C391        C  0.12444959  0.25959512  0.68182750    -0.09700
C392        C  0.12249376  0.29604574  0.70295070     0.06500
C393        C  0.10354085  0.32473067  0.67562326    -0.03500
C394        C  0.08949585  0.31706613  0.62781330    -0.07900
C395        C  0.09323660  0.28126073  0.60590046     0.05600
C396        C  0.10970595  0.25194668  0.63416872    -0.03000
Br397      Br  0.11158292  0.20066617  0.61039104    -0.02700
H398        H  0.13793222  0.23691034  0.70221201     0.09500
H399        H  0.07673982  0.33982747  0.60673180     0.07500
Br400      Br  0.09724599  0.37598289  0.69839154    -0.03100
C401        C  0.20020945  0.41882484  0.70153956    -0.09700
C402        C  0.22752731  0.39929185  0.72918437     0.06500
C403        C  0.26542681  0.39907585  0.71240039    -0.03500
C404        C  0.27474080  0.41546109  0.66631970    -0.07900
C405        C  0.24649388  0.43139850  0.63589136     0.05600
C406        C  0.20901024  0.43405612  0.65476064    -0.03000
Br407      Br  0.16699324  0.45208533  0.61591842    -0.02700
H408        H  0.17092313  0.41900672  0.71411918     0.09500
H409        H  0.30373785  0.41369473  0.65279202     0.07500
Br410      Br  0.30493070  0.37577345  0.75053212    -0.03100
C411        C  0.19569521  0.48733129  0.97787053    -0.09700
C412        C  0.23499566  0.49445419  0.97788903     0.06500
C413        C  0.25982327  0.46637806  0.96012919    -0.03500
C414        C  0.24512971  0.43171409  0.94304477    -0.07900
C415        C  0.20570566  0.42475999  0.94224684     0.05600
C416        C  0.18090203  0.45306991  0.95975709    -0.03000
Br417      Br  0.12676455  0.44600924  0.96178458    -0.02700
H418        H  0.17639224  0.50871501  0.99172734     0.09500
H419        H  0.26455573  0.41040923  0.92925904     0.07500
Br420      Br  0.31387829  0.47393186  0.95928757    -0.03100
C421        C  0.79054374  0.51415008  0.95415021    -0.09700
C422        C  0.75856421  0.51504031  0.98537633     0.06500
C423        C  0.74289493  0.55022838  0.99847540    -0.03500
C424        C  0.75825203  0.58364288  0.97837591    -0.07900
C425        C  0.78987127  0.58295446  0.94581576     0.05600
C426        C  0.80664811  0.54741995  0.93496659    -0.03000
Br427      Br  0.85195977  0.54108561  0.89553433    -0.02700
H428        H  0.80347733  0.48721212  0.94519175     0.09500
H429        H  0.74493706  0.61025743  0.98788641     0.07500
Br430      Br  0.69973139  0.55399292  0.04216758    -0.03100
C431        C  0.03820007  0.31482630  0.91008115    -0.09700
C432        C  0.07259019  0.31041385  0.93598329     0.06500
C433        C  0.07135442  0.29344809  0.98407792    -0.03500
C434        C  0.03694408  0.27993232  0.00344507    -0.07900
C435        C  0.00276318  0.28375585  0.97730234     0.05600
C436        C  0.00352710  0.30236501  0.93046131    -0.03000
Br437      Br  0.95834128  0.31421463  0.89365966    -0.02700
H438        H  0.03811227  0.32842651  0.87385297     0.09500
H439        H  0.03703244  0.26588120  0.03937091     0.07500
Br440      Br  0.11472687  0.28686423  0.02680636    -0.03100
C441        C  0.91885817  0.30525839  0.14407951    -0.09700
C442        C  0.91525380  0.26800538  0.12603686     0.06500
C443        C  0.89905755  0.24036170  0.15796967    -0.03500
C444        C  0.88226757  0.25113430  0.20336641    -0.07900
C445        C  0.88352565  0.28887843  0.21963036     0.05600
C446        C  0.90393285  0.31564227  0.19074290    -0.03000
Br447      Br  0.90958440  0.36760825  0.21062501    -0.02700
H448        H  0.93179469  0.32690014  0.12088745     0.09500
H449        H  0.86797311  0.22996179  0.22598887     0.07500
Br450      Br  0.90103412  0.18730583  0.14313318    -0.03100
C451        C  0.79603186  0.40918369  0.18971689    -0.09700
C452        C  0.76926920  0.38777884  0.21714747     0.06500
C453        C  0.73132180  0.38624418  0.19995391    -0.03500
C454        C  0.72185855  0.40341312  0.15452075    -0.07900
C455        C  0.74939781  0.42249863  0.12568230     0.05600
C456        C  0.78663576  0.42610315  0.14441320    -0.03000
Br457      Br  0.82736595  0.44960445  0.10749890    -0.02700
H458        H  0.82530357  0.41109446  0.20194337     0.09500
H459        H  0.69302813  0.40081844  0.14074159     0.07500
Br460      Br  0.69102196  0.36123971  0.23585117    -0.03100
C461        C  0.74864145  0.48380458  0.44028368    -0.09700
C462        C  0.76693410  0.49951075  0.48229114     0.06500
C463        C  0.80103579  0.48265065  0.49905711    -0.03500
C464        C  0.81440738  0.44960802  0.47609328    -0.07900
C465        C  0.79584215  0.43412929  0.43452770     0.05600
C466        C  0.76318420  0.45194610  0.41589753    -0.03000
Br467      Br  0.73650255  0.43290961  0.35845059    -0.02700
H468        H  0.72271464  0.49627486  0.42636833     0.09500
H469        H  0.84008894  0.43651736  0.48983678     0.07500
Br470      Br  0.83296185  0.50500796  0.54936161    -0.03100
C471        C  0.95487780  0.33321493  0.41592779    -0.09700
C472        C  0.92280024  0.31615307  0.43839407     0.06500
C473        C  0.92875107  0.29054211  0.47830867    -0.03500
C474        C  0.96578680  0.28130085  0.49267532    -0.07900
C475        C  0.99761604  0.29740473  0.46897114     0.05600
C476        C  0.99183685  0.32439751  0.43110545    -0.03000
Br477      Br  0.03308261  0.35190221  0.40094965    -0.02700
H478        H  0.95136125  0.35351286  0.38603856     0.09500
H479        H  0.96979418  0.26112342  0.52261514     0.07500
Br480      Br  0.88835975  0.26775872  0.51660943    -0.03100
C481        C  0.81278844  0.14559248  0.44671393    -0.09700
C482        C  0.77502403  0.13448678  0.45599015     0.06500
C483        C  0.74508353  0.15572031  0.43586194    -0.03500
C484        C  0.75312009  0.18822158  0.40811872    -0.07900
C485        C  0.79074152  0.20022046  0.40043555     0.05600
C486        C  0.82077426  0.17845934  0.41919956    -0.03000
Br487      Br  0.87265017  0.19424038  0.41074959    -0.02700
H488        H  0.83594965  0.12949125  0.46243313     0.09500
H489        H  0.72983032  0.20559572  0.39528715     0.07500
Br490      Br  0.69281124  0.14341539  0.44948303    -0.03100
C491        C  0.66680516  0.27316687  0.39334671    -0.09700
C492        C  0.68783079  0.30493479  0.40973564     0.06500
C493        C  0.67253617  0.32722135  0.44879857    -0.03500
C494        C  0.63937990  0.31541845  0.47351150    -0.07900
C495        C  0.62030929  0.28186593  0.45999130     0.05600
C496        C  0.63344423  0.26151306  0.41797438    -0.03000
Br497      Br  0.60966723  0.21543373  0.39560440    -0.02700
H498        H  0.67761857  0.25571056  0.36324508     0.09500
H499        H  0.62902336  0.33199901  0.50476630     0.07500
Br500      Br  0.69535644  0.37387220  0.47100148    -0.03100
C501        C  0.86877603  0.23699361  0.91377588    -0.09700
C502        C  0.87735737  0.21760108  0.95806321     0.06500
C503        C  0.85459444  0.18623322  0.97153870    -0.03500
C504        C  0.82095431  0.17871523  0.94562042    -0.07900
C505        C  0.80988141  0.20116952  0.90489003     0.05600
C506        C  0.83599683  0.22843381  0.88643855    -0.03000
Br507      Br  0.82891563  0.25611056  0.82560343    -0.02700
H508        H  0.88664097  0.26028954  0.90150346     0.09500
H509        H  0.80261956  0.15603344  0.95878757     0.07500
Br510      Br  0.86819756  0.15223329  0.02410727    -0.03100
C511        C  0.73182397  0.37501246  0.91325655    -0.09700
C512        C  0.70932617  0.38301008  0.95549100     0.06500
C513        C  0.67928088  0.35794558  0.96775541    -0.03500
C514        C  0.67526015  0.32368655  0.94200350    -0.07900
C515        C  0.69987687  0.31417719  0.90268278     0.05600
C516        C  0.72702640  0.34103585  0.88659922    -0.03000
Br517      Br  0.76070929  0.33119747  0.83190593    -0.02700
H518        H  0.75477456  0.39401415  0.90286117     0.09500
H519        H  0.65372553  0.30364474  0.95405606     0.07500
Br520      Br  0.64326118  0.36862616  0.01993356    -0.03100
C521        C  0.75855393  0.12510189  0.70300827    -0.09700
C522        C  0.72055055  0.12236944  0.71937806     0.06500
C523        C  0.69486763  0.10003396  0.69066621    -0.03500
C524        C  0.70653792  0.08452251  0.64503446    -0.07900
C525        C  0.74356944  0.09001101  0.62692833     0.05600
C526        C  0.77020836  0.10886381  0.65762645    -0.03000
Br527      Br  0.82290852  0.11280439  0.63949877    -0.02700
H528        H  0.77919146  0.14076859  0.72491293     0.09500
H529        H  0.68579507  0.06979380  0.62218287     0.07500
Br530      Br  0.64255939  0.09097850  0.70820888    -0.03100
C531        C  0.61934388  0.26187159  0.70400396    -0.09700
C532        C  0.61047548  0.22715375  0.72681642     0.06500
C533        C  0.58210929  0.20395940  0.70487141    -0.03500
C534        C  0.56752490  0.21317946  0.65773744    -0.07900
C535        C  0.57914192  0.24628884  0.63267539     0.05600
C536        C  0.60307471  0.27211015  0.65835248    -0.03000
Br537      Br  0.61363594  0.32228256  0.63409363    -0.02700
H538        H  0.63964866  0.28094576  0.72141088     0.09500
H539        H  0.54837528  0.19332336  0.63968143     0.07500
Br540      Br  0.56372364  0.15808012  0.73507767    -0.03100
C541        C  0.65433786  0.76269177  0.96508731    -0.09700
C542        C  0.62165808  0.74201223  0.95282783     0.06500
C543        C  0.62281723  0.71705331  0.91142239    -0.03500
C544        C  0.65765637  0.71025961  0.88709711    -0.07900
C545        C  0.69120825  0.72787077  0.90389058     0.05600
C546        C  0.68880017  0.75563059  0.94191579    -0.03000
Br547      Br  0.73128992  0.78452882  0.96655412    -0.02700
H548        H  0.65345904  0.78339782  0.99497471     0.09500
H549        H  0.65889322  0.68957583  0.85721644     0.07500
Br550      Br  0.57891828  0.68951593  0.88885483    -0.03100
C551        C  0.72935708  0.04046192  0.00372132    -0.09700
C552        C  0.72267994  0.00714763  0.97632655     0.06500
C553        C  0.70162060  0.00950165  0.93167417    -0.03500
C554        C  0.68887690  0.04466468  0.91459789    -0.07900
C555        C  0.69621197  0.07834717  0.94124409     0.05600
C556        C  0.71658316  0.07573761  0.98685573    -0.03000
Br557      Br  0.72970752  0.11861219  0.02786270    -0.02700
H558        H  0.74524703  0.03910540  0.03828974     0.09500
H559        H  0.67299915  0.04552149  0.88001150     0.07500
Br560      Br  0.68740279  0.96548784  0.89366447    -0.03100
C561        C  0.77416770  0.87472525  0.90310298    -0.09700
C562        C  0.78966911  0.88214521  0.95043237     0.06500
C563        C  0.81876920  0.85821471  0.96790159    -0.03500
C564        C  0.82742375  0.82486905  0.94197023    -0.07900
C565        C  0.80808719  0.81466336  0.89792518     0.05600
C566        C  0.78344634  0.84177534  0.87646567    -0.03000
Br567      Br  0.75901962  0.83518406  0.81291481    -0.02700
H568        H  0.75260767  0.89323988  0.88815421     0.09500
H569        H  0.84783909  0.80574848  0.95819084     0.07500
Br570      Br  0.84707609  0.86897960  0.02765179    -0.03100
C571        C  0.81972882  0.75767381  0.38237560    -0.09700
C572        C  0.80760728  0.79518255  0.38758077     0.06500
C573        C  0.82963924  0.82079933  0.41581604    -0.03500
C574        C  0.86229793  0.80820868  0.44035436    -0.07900
C575        C  0.87281965  0.77000228  0.43800065     0.05600
C576        C  0.85153719  0.74475897  0.40821746    -0.03000
Br577      Br  0.86082142  0.69133107  0.40841959    -0.02700
H578        H  0.80206812  0.73736634  0.36255700     0.09500
H579        H  0.87815700  0.82770507  0.46381759     0.07500
Br580      Br  0.81468618  0.87244898  0.42433281    -0.03100
C581        C  0.68314287  0.66842415  0.40508413    -0.09700
C582        C  0.70146339  0.70163540  0.42157286     0.06500
C583        C  0.72815371  0.69938121  0.46060461    -0.03500
C584        C  0.73623605  0.66473472  0.48214585    -0.07900
C585        C  0.71690432  0.63172687  0.46781416     0.05600
C586        C  0.69018481  0.63354222  0.42859372    -0.03000
Br587      Br  0.66095227  0.59014722  0.40835829    -0.02700
H588        H  0.66258626  0.66983629  0.37511621     0.09500
H589        H  0.75725598  0.66374900  0.51163646     0.07500
Br590      Br  0.75494333  0.74222562  0.48742623    -0.03100
C591        C  0.73904023  0.92948357  0.15600204    -0.09700
C592        C  0.72698108  0.91003684  0.11285036     0.06500
C593        C  0.70657262  0.87580502  0.11809952    -0.03500
C594        C  0.70080544  0.86038322  0.16532345    -0.07900
C595        C  0.71395051  0.87893278  0.20836244     0.05600
C596        C  0.73231740  0.91431386  0.20376230    -0.03000
Br597      Br  0.75065561  0.94151223  0.26102863    -0.02700
H598        H  0.75466905  0.95587220  0.15245210     0.09500
H599        H  0.68521758  0.83389196  0.16851192     0.07500
Br600      Br  0.68438780  0.84957715  0.06232113    -0.03100
C601        C  0.61669820  0.74438098  0.19995195    -0.09700
C602        C  0.61021025  0.78030433  0.22107044     0.06500
C603        C  0.58430548  0.80463533  0.19643531    -0.03500
C604        C  0.56885800  0.79425656  0.15019876    -0.07900
C605        C  0.57772042  0.75966181  0.12734572     0.05600
C606        C  0.60056683  0.73384582  0.15396796    -0.03000
Br607      Br  0.61048763  0.68364844  0.12973483    -0.02700
H608        H  0.63554264  0.72472096  0.21832738     0.09500
H609        H  0.55117275  0.81441580  0.13077689     0.07500
Br610      Br  0.56887712  0.85319239  0.22174437    -0.03100
C611        C  0.73416019  0.93441004  0.46829502    -0.09700
C612        C  0.70252447  0.93395942  0.43595082     0.06500
C613        C  0.68442824  0.96879924  0.42564075    -0.03500
C614        C  0.69793951  0.00235790  0.44771240    -0.07900
C615        C  0.72941349  0.00229896  0.47984057     0.05600
C616        C  0.74787239  0.96801595  0.48946777    -0.03000
Br617      Br  0.79350330  0.96602732  0.52850430    -0.02700
H618        H  0.74887768  0.90847219  0.47693016     0.09500
H619        H  0.68376222  0.02878739  0.43976282     0.07500
Br620      Br  0.64128942  0.97339660  0.38231174    -0.03100
C621        C  0.19246627  0.85991035  0.45055433    -0.09700
C622        C  0.22814247  0.87639147  0.44060681     0.06500
C623        C  0.25098037  0.86095600  0.40224468    -0.03500
C624        C  0.23903433  0.82808521  0.37725302    -0.07900
C625        C  0.20479650  0.81001498  0.39025231     0.05600
C626        C  0.18077778  0.82697890  0.42576141    -0.03000
Br627      Br  0.13248772  0.80512017  0.44289836    -0.02700
H628        H  0.17438748  0.87174157  0.47939280     0.09500
H629        H  0.25811788  0.81475938  0.35076687     0.07500
Br630      Br  0.30086352  0.88022911  0.38711488    -0.03100
C631        C  0.50540482  0.81438127  0.44620556    -0.09700
C632        C  0.50643063  0.78307684  0.47836991     0.06500
C633        C  0.54166672  0.76696274  0.49036904    -0.03500
C634        C  0.57522624  0.78271024  0.47109096    -0.07900
C635        C  0.57436671  0.81401821  0.43872262     0.05600
C636        C  0.53890172  0.82977223  0.42610721    -0.03000
Br637      Br  0.53431491  0.87292825  0.38310742    -0.02700
H638        H  0.47837669  0.82701960  0.43690727     0.09500
H639        H  0.60204423  0.76944221  0.47989048     0.07500
Br640      Br  0.54511376  0.72174786  0.52966241    -0.03100
C641        C  0.35846877  0.69385342  0.46604903    -0.09700
C642        C  0.37579496  0.72862895  0.45438200     0.06500
C643        C  0.36055367  0.75075985  0.41564902    -0.03500
C644        C  0.32738012  0.73883047  0.39138362    -0.07900
C645        C  0.30837701  0.70533321  0.40558832     0.05600
C646        C  0.32512582  0.68209079  0.44215300    -0.03000
Br647      Br  0.30403579  0.63425043  0.46172687    -0.02700
H648        H  0.37024223  0.67636422  0.49531467     0.09500
H649        H  0.31494178  0.75735175  0.36376888     0.07500
Br650      Br  0.38082474  0.79966714  0.39855082    -0.03100
C651        C  0.16730298  0.77386885  0.87565262    -0.09700
C652        C  0.18813444  0.80309222  0.89889232     0.06500
C653        C  0.17318171  0.81962196  0.94284516    -0.03500
C654        C  0.14097688  0.80366398  0.96541943    -0.07900
C655        C  0.12336738  0.77108977  0.94562958     0.05600
C656        C  0.13577861  0.75730930  0.89890326    -0.03000
Br657      Br  0.11526995  0.71271827  0.86785242    -0.02700
H658        H  0.17759447  0.76116792  0.84137480     0.09500
H659        H  0.13086620  0.81552304  0.00035066     0.07500
Br660      Br  0.19587191  0.86250047  0.97589850    -0.03100
C661        C  0.32071699  0.68404613  0.93356133    -0.09700
C662        C  0.29455560  0.69568884  0.89736255     0.06500
C663        C  0.26413012  0.67138938  0.88475826    -0.03500
C664        C  0.25918882  0.63702395  0.91028334    -0.07900
C665        C  0.28419901  0.62645808  0.94861217     0.05600
C666        C  0.31619333  0.64954698  0.95846497    -0.03000
Br667      Br  0.35396597  0.63586734  0.00670093    -0.02700
H668        H  0.34383564  0.70266950  0.94424863     0.09500
H669        H  0.23423472  0.61986367  0.90264610     0.07500
Br670      Br  0.22575198  0.68619488  0.83818204    -0.03100
C671        C  0.23706914  0.90525962  0.64350813    -0.09700
C672        C  0.26739390  0.91437309  0.61115387     0.06500
C673        C  0.30472878  0.90666069  0.62655862    -0.03500
C674        C  0.31137335  0.89123621  0.67370259    -0.07900
C675        C  0.28125393  0.88137743  0.70599595     0.05600
C676        C  0.24364730  0.88861890  0.69044302    -0.03000
Br677      Br  0.20032295  0.87627635  0.73117542    -0.02700
H678        H  0.20812468  0.91002840  0.63152937     0.09500
H679        H  0.34040076  0.88477956  0.68385364     0.07500
Br680      Br  0.34736464  0.91159274  0.58213005    -0.03100
C681        C  0.40699434  0.81066422  0.69449220    -0.09700
C682        C  0.38684315  0.78222889  0.72001188     0.06500
C683        C  0.38386568  0.74594196  0.69848444    -0.03500
C684        C  0.39957952  0.73910213  0.65121315    -0.07900
C685        C  0.41751229  0.76828625  0.62401595     0.05600
C686        C  0.42159612  0.80429921  0.64654147    -0.03000
Br687      Br  0.44137056  0.84757532  0.61142181    -0.02700
H688        H  0.40839705  0.83898357  0.70997348     0.09500
H689        H  0.39629421  0.71129184  0.63465399     0.07500
Br690      Br  0.35754564  0.70521867  0.73144829    -0.03100
C691        C  0.44144122  0.82892739  0.96852718    -0.09700
C692        C  0.41973909  0.80423613  0.93888738     0.06500
C693        C  0.43251307  0.76701399  0.93070266    -0.03500
C694        C  0.46587467  0.75460756  0.95342144    -0.07900
C695        C  0.48724664  0.77893974  0.98403594     0.05600
C696        C  0.47511363  0.81658422  0.99096695    -0.03000
Br697      Br  0.50481936  0.85277149  0.02784620    -0.02700
H698        H  0.43213443  0.85777401  0.97431444     0.09500
H699        H  0.47562335  0.72604889  0.94639673     0.07500
Br700      Br  0.40712235  0.73316654  0.88533453    -0.03100
C701        C  0.50777006  0.20701218  0.95477597    -0.09700
C702        C  0.50857288  0.24088001  0.98228344     0.06500
C703        C  0.54365985  0.25861820  0.99171849    -0.03500
C704        C  0.57719962  0.24241788  0.97391573    -0.07900
C705        C  0.57681863  0.20850792  0.94593855     0.05600
C706        C  0.54128834  0.19069510  0.93658117    -0.03000
Br707      Br  0.53562020  0.14413194  0.89995666    -0.02700
H708        H  0.48081499  0.19296426  0.94778807     0.09500
H709        H  0.60370560  0.25710456  0.98128495     0.07500
Br710      Br  0.54704411  0.30624045  0.02615079    -0.03100
C711        C  0.33612470  0.31027492  0.89143543    -0.09700
C712        C  0.30499284  0.28650848  0.90237080     0.06500
C713        C  0.30956342  0.25729833  0.93792926    -0.03500
C714        C  0.34370723  0.25344695  0.96316475    -0.07900
C715        C  0.37388243  0.27858522  0.95501543     0.05600
C716        C  0.37046671  0.30666299  0.91785499    -0.03000
Br717      Br  0.41035034  0.34271789  0.90546058    -0.02700
H718        H  0.33297438  0.33310341  0.86485377     0.09500
H719        H  0.34628270  0.23133032  0.99094068     0.07500
Br720      Br  0.27006887  0.22223493  0.95647226    -0.03100
C721        C  0.32190421  0.95201740  0.96191790    -0.09700
C722        C  0.29887729  0.93126669  0.92909512     0.06500
C723        C  0.26298375  0.94548278  0.91627468    -0.03500
C724        C  0.24990019  0.97912210  0.93803295    -0.07900
C725        C  0.27291228  0.00058380  0.97079882     0.05600
C726        C  0.30989459  0.98690923  0.98145304    -0.03000
Br727      Br  0.34746075  0.01601718  0.01695572    -0.02700
H728        H  0.35003687  0.94175926  0.97077890     0.09500
H729        H  0.22167203  0.98875959  0.92860668     0.07500
Br730      Br  0.23123926  0.92013942  0.86825106    -0.03100
C731        C  0.21878873  0.17216399  0.87171930    -0.09700
C732        C  0.18845782  0.19399367  0.89011457     0.06500
C733        C  0.16569339  0.17851415  0.92868832    -0.03500
C734        C  0.17716822  0.14547012  0.95319457    -0.07900
C735        C  0.21064067  0.12662829  0.93925067     0.05600
C736        C  0.23024371  0.13906535  0.89606941    -0.03000
Br737      Br  0.27635676  0.11600443  0.87298594    -0.02700
H738        H  0.23639261  0.18289101  0.84152630     0.09500
H739        H  0.16083573  0.13543530  0.98500282     0.07500
Br740      Br  0.11897400  0.20120882  0.94991673    -0.03100
C741        C  0.17276064  0.24335728  0.36602417    -0.09700
C742        C  0.18984148  0.20995855  0.38283456     0.06500
C743        C  0.17238650  0.18947923  0.42190874    -0.03500
C744        C  0.14037256  0.20409237  0.44601520    -0.07900
C745        C  0.12567131  0.23955025  0.43279191     0.05600
C746        C  0.14141713  0.25866483  0.39124196    -0.03000
Br747      Br  0.12593676  0.30852940  0.37251822    -0.02700
H748        H  0.18649967  0.25994292  0.33704185     0.09500
H749        H  0.12842696  0.18887910  0.47754131     0.07500
Br750      Br  0.19321294  0.14314107  0.44683737    -0.03100
C751        C  0.31646549  0.34027515  0.41146766    -0.09700
C752        C  0.29408303  0.30835744  0.42295714     0.06500
C753        C  0.26496393  0.31159136  0.45889416    -0.03500
C754        C  0.25842672  0.34613358  0.48233462    -0.07900
C755        C  0.28107292  0.37803064  0.47202779     0.05600
C756        C  0.31048097  0.37494544  0.43623491    -0.03000
Br757      Br  0.34471258  0.41613795  0.42270738    -0.02700
H758        H  0.33915706  0.33797890  0.38419609     0.09500
H759        H  0.23557128  0.34799216  0.50948232     0.07500
Br760      Br  0.23286062  0.26994945  0.47798064    -0.03100
C761        C  0.27237267  0.09935829  0.19789692    -0.09700
C762        C  0.28838055  0.13595974  0.19851326     0.06500
C763        C  0.29432516  0.15454456  0.15238596    -0.03500
C764        C  0.28363817  0.13710922  0.10758781    -0.07900
C765        C  0.26628898  0.10114978  0.10670154     0.05600
C766        C  0.26091707  0.08210030  0.15272717    -0.03000
Br767      Br  0.23551359  0.03399024  0.15688087    -0.02700
H768        H  0.26758835  0.08461782  0.23281667     0.09500
H769        H  0.28902477  0.15196078  0.07285563     0.07500
Br770      Br  0.31855951  0.20323823  0.14707360    -0.03100
C771        C  0.41491518  0.21918300  0.19911300    -0.09700
C772        C  0.38933935  0.24405439  0.22258979     0.06500
C773        C  0.38333407  0.27983427  0.20033772    -0.03500
C774        C  0.39942784  0.28788819  0.15334772    -0.07900
C775        C  0.42143606  0.26097067  0.12753677     0.05600
C776        C  0.42995376  0.22663444  0.15187584    -0.03000
Br777      Br  0.45631947  0.18541564  0.12039855    -0.02700
H778        H  0.42071825  0.19176073  0.21539565     0.09500
H779        H  0.39315744  0.31471947  0.13569614     0.07500
Br780      Br  0.35230901  0.31828857  0.23022859    -0.03100
C781        C  0.44118326  0.17970600  0.47306199    -0.09700
C782        C  0.42165039  0.20319299  0.43994202     0.06500
C783        C  0.43488709  0.24039249  0.43195925    -0.03500
C784        C  0.46785938  0.25329802  0.45589498    -0.07900
C785        C  0.48837192  0.22956328  0.48795112     0.05600
C786        C  0.47453820  0.19239577  0.49665585    -0.03000
Br787      Br  0.50155758  0.15649720  0.53664636    -0.02700
H788        H  0.43114677  0.15105580  0.47933758     0.09500
H789        H  0.47778971  0.28190062  0.44898796     0.07500
Br790      Br  0.40846984  0.27474606  0.38899415    -0.03100
C791        C  0.26064714  0.02312584  0.42827730    -0.09700
C792        C  0.28239475  0.00699200  0.46693762     0.06500
C793        C  0.31642290  0.02596709  0.48130972    -0.03500
C794        C  0.32699315  0.06021495  0.45832862    -0.07900
C795        C  0.30487162  0.07586746  0.42031973     0.05600
C796        C  0.27191246  0.05672687  0.40470211    -0.03000
Br797      Br  0.24212167  0.07510436  0.35001568    -0.02700
H798        H  0.23455386  0.00961816  0.41614561     0.09500
H799        H  0.35244322  0.07492981  0.47054519     0.07500
Br800      Br  0.35136725  0.00651180  0.52956098    -0.03100
loop_ 
_geom_bond_atom_site_label_1 
_geom_bond_atom_site_label_2 
_geom_bond_distance 
_geom_bond_site_symmetry_2 
_ccdc_geom_bond_type 
O1           C16   1.261       .  A
O1           Al9   1.917       .  S
C2           O12   1.253       .  A
C2            O3   1.263       .  A
C2          C795   1.473       .  S
O3           Al5   1.940       .  S
O4            C6   1.268       .  A
O4           Al5   1.924       .  S
Al5          O13   1.899       .  S
Al5          O15   1.898       .  S
Al5          O14   1.787       .  S
C6           O19   1.268       .  A
C6          C762   1.492       .  S
O7           C17   1.263       .  A
O7           Al9   1.913       .  S
O8           C21   1.259       .  A
O8          Al18   1.892       .  S
Al9          O22   1.926       .  S
Al9          O19   1.930       .  S
Al9          O14   1.792       .  S
O10          C17   1.259       .  A
O10         Al18   1.886       .  S
O11          C20   1.262       .  A
O11         Al18   1.925       .  S
O12         Al18   1.881       .  S
O13          C20   1.260       .  A
O14         Al18   1.786       .  S
O15          C16   1.261       .  A
C16         C772   1.495       .  S
C17         C742   1.474       .  S
C20         C782   1.473       .  S
C21          O22   1.263       .  A
C21         C752   1.473       .  S
C23         C725   1.504       .  S
C23          C24   1.415   1_556  A
C23          C28   1.413       .  A
C24          C25   1.410       .  A
C24          H29   1.081       .  S
C25         C765   1.501       .  S
C25          C26   1.407       .  A
C26          C27   1.404   1_554  A
C26          H30   1.084       .  S
C27         C735   1.493       .  S
C27          C28   1.405       .  A
C28          H31   1.083       .  S
C32         C702   1.480   1_554  S
C32          C33   1.406       .  A
C32          C37   1.403   1_554  A
C33          C34   1.406       .  A
C33          H38   1.081       .  S
C34         C775   1.492       .  S
C34          C35   1.403       .  A
C35          C36   1.406   1_554  A
C35          H39   1.087       .  S
C36         C715   1.479       .  S
C36          C37   1.401       .  A
C37          H40   1.084       .  S
O41          C56   1.263       .  A
O41         Al49   1.918       .  S
C42          O52   1.255       .  A
C42          O43   1.264       .  A
C42         C692   1.471       .  S
O43         Al45   1.938       .  S
O44          C46   1.264       .  A
O44         Al45   1.902       .  S
Al45         O53   1.902       .  S
Al45         O55   1.904       .  S
Al45         O54   1.787       .  S
C46          O59   1.264       .  A
C46         C682   1.474       .  S
O47          C57   1.262       .  A
O47         Al49   1.917       .  S
O48          C61   1.260       .  A
O48         Al58   1.890       .  S
Al49         O62   1.909       .  S
Al49         O59   1.910       .  S
Al49         O54   1.786       .  S
O50          C57   1.259       .  A
O50         Al58   1.901       .  S
O51          C60   1.263       .  A
O51         Al58   1.929       .  S
O52         Al58   1.880       .  S
O53          C60   1.259       .  A
O54         Al58   1.785       .  S
O55          C56   1.261       .  A
C56         C675   1.489       .  S
C57         C662   1.476       .  S
C60         C722   1.477       .  S
C61          O62   1.265       .  A
C61         C652   1.484       .  S
C63         C632   1.478       .  S
C63          C64   1.404       .  A
C63          C68   1.406       .  A
C64          C65   1.403       .  A
C64          H69   1.084       .  S
C65         C642   1.481       .  S
C65          C66   1.403       .  A
C66          C67   1.403       .  A
C66          H70   1.085       .  S
C67         C685   1.487       .  S
C67          C68   1.405       .  A
C68          H71   1.083       .  S
C72         C792   1.505   1_565  S
C72          C73   1.416       .  A
C72          C77   1.411       .  A
C73          C74   1.412       .  A
C73          H78   1.081       .  S
C74         C672   1.486       .  S
C74          C75   1.398       .  A
C75          C76   1.400       .  A
C75          H79   1.085       .  S
C76         C622   1.483       .  S
C76          C77   1.402       .  A
C77          H80   1.083       .  S
O81          C96   1.267       .  A
O81         Al89   1.922       .  S
C82          O92   1.252       .  A
C82          O83   1.260       .  A
C82         C612   1.496       .  S
O83         Al85   1.931       .  S
O84          C86   1.263       .  A
O84         Al85   1.904       .  S
Al85         O93   1.889       .  S
Al85         O95   1.913       .  S
Al85         O94   1.790       .  S
C86          O99   1.265       .  A
C86         C595   1.472       .  S
O87          C97   1.263       .  A
O87         Al89   1.907       .  S
O88         C101   1.256       .  A
O88         Al98   1.887       .  S
Al89        O102   1.920       .  S
Al89         O99   1.912       .  S
Al89         O94   1.793       .  S
O90          C97   1.260       .  A
O90         Al98   1.894       .  S
O91         C100   1.266       .  A
O91         Al98   1.920       .  S
O92         Al98   1.876       .  S
O93         C100   1.260       .  A
O94         Al98   1.781       .  S
O95          C96   1.261       .  A
C96         C602   1.498       .  S
C97         C572   1.468       .  S
C100        C635   1.480       .  S
C101        O102   1.260       .  A
C101        C582   1.472       .  S
C103        C552   1.492   1_565  S
C103        C104   1.414       .  A
C103        C108   1.408   1_556  A
C104        C105   1.410       .  A
C104        H109   1.083       .  S
C105        C562   1.495       .  S
C105        C106   1.402   1_556  A
C106        C107   1.400       .  A
C106        H110   1.083       .  S
C107        C592   1.481       .  S
C107        C108   1.402       .  A
C108        H111   1.084       .  S
C112        C695   1.479   1_554  S
C112        C113   1.410       .  A
C112        C117   1.403   1_554  A
C113        C114   1.410       .  A
C113        H118   1.083       .  S
C114        C605   1.496       .  S
C114        C115   1.402       .  A
C115        C116   1.408   1_554  A
C115        H119   1.083       .  S
C116        C542   1.484       .  S
C116        C117   1.397       .  A
C117        H120   1.084       .  S
O121        C136   1.265       .  A
O121       Al129   1.914       .  S
C122        O132   1.258       .  A
C122        O123   1.264       .  A
C122        C705   1.492       .  S
O123       Al125   1.929       .  S
O124        C126   1.261       .  A
O124       Al125   1.903       .  S
Al125       O133   1.903       .  S
Al125       O135   1.905       .  S
Al125       O134   1.784       .  S
C126        O139   1.265       .  A
C126        C532   1.487       .  S
O127        C137   1.262       .  A
O127       Al129   1.919       .  S
O128        C141   1.260       .  A
O128       Al138   1.884       .  S
Al129       O142   1.928       .  S
Al129       O139   1.919       .  S
Al129       O134   1.788       .  S
O130        C137   1.260       .  A
O130       Al138   1.902       .  S
O131        C140   1.260       .  A
O131       Al138   1.921       .  S
O132       Al138   1.880       .  S
O133        C140   1.260       .  A
O134       Al138   1.783       .  S
O135        C136   1.260       .  A
C136        C522   1.495       .  S
C137        C515   1.478       .  S
C140        C555   1.498       .  S
C141        O142   1.265       .  A
C141        C505   1.487       .  S
C143        C785   1.490       .  S
C143        C144   1.410       .  A
C143        C148   1.409       .  A
C144        C145   1.409       .  A
C144        H149   1.083       .  S
C145        C535   1.497       .  S
C145        C146   1.406       .  A
C146        C147   1.403       .  A
C146        H150   1.083       .  S
C147        C495   1.491       .  S
C147        C148   1.404       .  A
C148        H151   1.083       .  S
C152        C615   1.481       .  S
C152        C153   1.402       .  A
C152        C157   1.409       .  A
C153        C154   1.398       .  A
C153        H158   1.084       .  S
C154        C482   1.472       .  S
C154        C155   1.401       .  A
C155        C156   1.406       .  A
C155        H159   1.083       .  S
C156        C525   1.489       .  S
C156        C157   1.409       .  A
C157        H160   1.085       .  S
O161        C176   1.261       .  A
O161       Al169   1.908       .  S
C162        O172   1.259       .  A
C162        O163   1.266       .  A
C162        C472   1.493       .  S
O163       Al165   1.929       .  S
O164        C166   1.262       .  A
O164       Al165   1.901       .  S
Al165       O173   1.895       .  S
Al165       O175   1.895       .  S
Al165       O174   1.785       .  S
C166        O179   1.267       .  A
C166        C445   1.483       .  S
O167        C177   1.261       .  A
O167       Al169   1.911       .  S
O168        C181   1.262       .  A
O168       Al178   1.897       .  S
Al169       O182   1.934       .  S
Al169       O179   1.930       .  S
Al169       O174   1.785       .  S
O170        C177   1.257       .  A
O170       Al178   1.892       .  S
O171        C180   1.261       .  A
O171       Al178   1.922       .  S
O172       Al178   1.893       .  S
O173        C180   1.257       .  A
O174       Al178   1.783       .  S
O175        C176   1.260       .  A
C176        C452   1.487       .  S
C177        C485   1.463       .  S
C180        C465   1.472       .  S
C181        O182   1.268       .  A
C181        C492   1.492       .  S
C183        C435   1.493   1_654  S
C183        C184   1.404   1_554  A
C183        C188   1.412       .  A
C184        C185   1.403       .  A
C184        H189   1.083       .  S
C185        C502   1.488       .  S
C185        C186   1.406   1_556  A
C186        C187   1.406       .  A
C186        H190   1.083       .  S
C187        C442   1.496       .  S
C187        C188   1.408       .  A
C188        H191   1.083       .  S
C192        C422   1.481   1_554  S
C192        C193   1.409   1_554  A
C192        C197   1.404       .  A
C193        C194   1.406       .  A
C193        H198   1.084       .  S
C194        C512   1.489       .  S
C194        C195   1.404   1_556  A
C195        C196   1.401       .  A
C195        H199   1.084       .  S
C196        C455   1.483       .  S
C196        C197   1.403       .  A
C197        H200   1.083       .  S
O201        C216   1.264       .  A
O201       Al209   1.916       .  S
C202        O212   1.262       .  A
C202        O203   1.267       .  A
C202        C415   1.480       .  S
O203       Al205   1.932       .  S
O204        C206   1.262       .  A
O204       Al205   1.893       .  S
Al205       O213   1.919       .  S
Al205       O215   1.894       .  S
Al205       O214   1.786       .  S
C206        O219   1.265       .  A
C206        C402   1.472       .  S
O207        C217   1.261       .  A
O207       Al209   1.933       .  S
O208        C221   1.268       .  A
O208       Al218   1.905       .  S
Al209       O222   1.936       .  S
Al209       O219   1.913       .  S
Al209       O214   1.784       .  S
O210        C217   1.250       .  A
O210       Al218   1.868       .  S
O211        C220   1.255       .  A
O211       Al218   1.903       .  S
O212       Al218   1.899       .  S
O213        C220   1.262       .  A
O214       Al218   1.779       .  S
O215        C216   1.256       .  A
C216        C392   1.494       .  S
C217        C712   1.478       .  S
C220        C432   1.492       .  S
C221        O222   1.272       .  A
C221        C732   1.493       .  S
C223        C382   1.493       .  S
C223        C224   1.413       .  A
C223        C228   1.408       .  A
C224        C225   1.407       .  A
C224        H229   1.084       .  S
C225        C755   1.486       .  S
C225        C226   1.402       .  A
C226        C227   1.399       .  A
C226        H230   1.084       .  S
C227        C405   1.485       .  S
C227        C228   1.401       .  A
C228        H231   1.081       .  S
C232        C475   1.487   1_455  S
C232        C233   1.407       .  A
C232        C237   1.409       .  A
C233        C234   1.405       .  A
C233        H238   1.084       .  S
C234        C395   1.489       .  S
C234        C235   1.402       .  A
C235        C236   1.405       .  A
C235        H239   1.084       .  S
C236        C745   1.486       .  S
C236        C237   1.406       .  A
C237        H240   1.083       .  S
O241        C256   1.262       .  A
O241       Al249   1.909       .  S
C242        O252   1.257       .  A
C242        O243   1.265       .  A
C242        C375   1.487       .  S
O243       Al245   1.927       .  S
O244        C246   1.263       .  A
O244       Al245   1.901       .  S
Al245       O253   1.898       .  S
Al245       O255   1.900       .  S
Al245       O254   1.788       .  S
C246        O259   1.264       .  A
C246        C352   1.476       .  S
O247        C257   1.262       .  A
O247       Al249   1.909       .  S
O248        C261   1.260       .  A
O248       Al258   1.895       .  S
Al249       O262   1.916       .  S
Al249       O259   1.912       .  S
Al249       O254   1.789       .  S
O250        C257   1.260       .  A
O250       Al258   1.899       .  S
O251        C260   1.263       .  A
O251       Al258   1.917       .  S
O252       Al258   1.888       .  S
O253        C260   1.258       .  A
O254       Al258   1.783       .  S
O255        C256   1.261       .  A
C256        C362   1.488       .  S
C257        C625   1.470       .  S
C260        C385   1.489       .  S
C261        O262   1.263       .  A
C261        C645   1.483       .  S
C263        C345   1.477   1_455  S
C263        C264   1.406   1_556  A
C263        C268   1.404       .  A
C264        C265   1.404       .  A
C264        H269   1.083       .  S
C265        C355   1.490       .  S
C265        C266   1.404       .  A
C266        C267   1.404   1_554  A
C266        H270   1.084       .  S
C267        C655   1.485       .  S
C267        C268   1.402       .  A
C268        H271   1.083       .  S
C272        C412   1.480       .  S
C272        C273   1.404   1_556  A
C272        C277   1.407       .  A
C273        C274   1.403       .  A
C273        H278   1.083       .  S
C274        C365   1.484       .  S
C274        C275   1.401       .  A
C275        C276   1.405   1_554  A
C275        H279   1.085       .  S
C276        C665   1.486       .  S
C276        C277   1.406       .  A
C277        H280   1.084       .  S
O281        C296   1.259       .  A
O281       Al289   1.898       .  S
C282        O292   1.263       .  A
C282        O283   1.265       .  A
C282        C425   1.494       .  S
O283       Al285   1.926       .  S
O284        C286   1.261       .  A
O284       Al285   1.895       .  S
Al285       O293   1.906       .  S
Al285       O295   1.906       .  S
Al285       O294   1.783       .  S
C286        O299   1.267       .  A
C286        C332   1.482       .  S
O287        C297   1.262       .  A
O287       Al289   1.921       .  S
O288        C301   1.267       .  A
O288       Al298   1.908       .  S
Al289       O302   1.934       .  S
Al289       O299   1.927       .  S
Al289       O294   1.786       .  S
O290        C297   1.254       .  A
O290       Al298   1.874       .  S
O291        C300   1.257       .  A
O291       Al298   1.904       .  S
O292       Al298   1.900       .  S
O293        C300   1.261       .  A
O294       Al298   1.780       .  S
O295        C296   1.261       .  A
C296        C325   1.489       .  S
C297        C545   1.476       .  S
C300        C342   1.482       .  S
C301        O302   1.267       .  A
C301        C565   1.499       .  S
C303        C462   1.494       .  S
C303        C304   1.413       .  A
C303        C308   1.410       .  A
C304        C305   1.409       .  A
C304        H309   1.082       .  S
C305        C335   1.495       .  S
C305        C306   1.399       .  A
C306        C307   1.401       .  A
C306        H310   1.083       .  S
C307        C585   1.482       .  S
C307        C308   1.401       .  A
C308        H311   1.083       .  S
C312        C372   1.489   1_655  S
C312        C313   1.409       .  A
C312        C317   1.409       .  A
C313        C314   1.407       .  A
C313        H318   1.083       .  S
C314        C322   1.484       .  S
C314        C315   1.401       .  A
C315        C316   1.398       .  A
C315        H319   1.085       .  S
C316        C575   1.475       .  S
C316        C317   1.402       .  A
C317        H320   1.083       .  S
C321        C322   1.404       .  A
C321        C326   1.401       .  A
C321        H328   1.083       .  S
C322        C323   1.408       .  A
C323        C324   1.398       .  A
C323       Br330   1.921       .  S
C324        C325   1.410       .  A
C324        H329   1.083       .  S
C325        C326   1.416       .  A
C326       Br327   1.922       .  S
C331        C332   1.402       .  A
C331        C336   1.402       .  A
C331        H338   1.084       .  S
C332        C333   1.414       .  A
C333        C334   1.399       .  A
C333       Br340   1.921       .  S
C334        C335   1.405       .  A
C334        H339   1.082       .  S
C335        C336   1.416       .  A
C336       Br337   1.921       .  S
C341        C342   1.405       .  A
C341        C346   1.399       .  A
C341        H348   1.084       .  S
C342        C343   1.419       .  A
C343        C344   1.395       .  A
C343       Br350   1.921   1_556  S
C344        C345   1.398       .  A
C344        H349   1.084   1_556  S
C345        C346   1.409       .  A
C346       Br347   1.916   1_655  S
C351        C352   1.404       .  A
C351        C356   1.401       .  A
C351        H358   1.083       .  S
C352        C353   1.407       .  A
C353        C354   1.398       .  A
C353       Br360   1.920       .  S
C354        C355   1.408       .  A
C354        H359   1.083       .  S
C355        C356   1.414       .  A
C356       Br357   1.921       .  S
C361        C362   1.409       .  A
C361        C366   1.395       .  A
C361        H368   1.083       .  S
C362        C363   1.414       .  A
C363        C364   1.403       .  A
C363       Br370   1.920       .  S
C364        C365   1.406       .  A
C364        H369   1.083       .  S
C365        C366   1.409       .  A
C366       Br367   1.922       .  S
C371        C372   1.405       .  A
C371        C376   1.401       .  A
C371        H378   1.083       .  S
C372        C373   1.412       .  A
C373        C374   1.398       .  A
C373       Br380   1.918   1_455  S
C374        C375   1.405       .  A
C374        H379   1.083       .  S
C375        C376   1.416       .  A
C376       Br377   1.922       .  S
C381        C382   1.408       .  A
C381        C386   1.403       .  A
C381        H388   1.083       .  S
C382        C383   1.413       .  A
C383        C384   1.397       .  A
C383       Br390   1.923       .  S
C384        C385   1.405       .  A
C384        H389   1.082       .  S
C385        C386   1.414       .  A
C386       Br387   1.921       .  S
C391        C392   1.407       .  A
C391        C396   1.403       .  A
C391        H398   1.083       .  S
C392        C393   1.422       .  A
C393        C394   1.398       .  A
C393       Br400   1.923       .  S
C394        C395   1.400       .  A
C394        H399   1.084       .  S
C395        C396   1.412       .  A
C396       Br397   1.920       .  S
C401        C402   1.401       .  A
C401        C406   1.397       .  A
C401        H408   1.083       .  S
C402        C403   1.406       .  A
C403        C404   1.400       .  A
C403       Br410   1.918       .  S
C404        C405   1.408       .  A
C404        H409   1.083       .  S
C405        C406   1.414       .  A
C406       Br407   1.923       .  S
C411        C412   1.403       .  A
C411        C416   1.400       .  A
C411        H418   1.083       .  S
C412        C413   1.407       .  A
C413        C414   1.402       .  A
C413       Br420   1.918       .  S
C414        C415   1.407       .  A
C414        H419   1.084       .  S
C415        C416   1.410       .  A
C416       Br417   1.919       .  S
C421        C422   1.400       .  A
C421        C426   1.399       .  A
C421        H428   1.084       .  S
C422        C423   1.407       .  A
C423        C424   1.402       .  A
C423       Br430   1.919   1_556  S
C424        C425   1.411       .  A
C424        H429   1.083       .  S
C425        C426   1.420       .  A
C426       Br427   1.923       .  S
C431        C432   1.406       .  A
C431        C436   1.403       .  A
C431        H438   1.083       .  S
C432        C433   1.421       .  A
C433        C434   1.397   1_556  A
C433       Br440   1.925   1_556  S
C434        C435   1.400   1_554  A
C434        H439   1.083       .  S
C435        C436   1.417       .  A
C436       Br437   1.922   1_455  S
C441        C442   1.406       .  A
C441        C446   1.402       .  A
C441        H448   1.083       .  S
C442        C443   1.414       .  A
C443        C444   1.402       .  A
C443       Br450   1.917       .  S
C444        C445   1.402       .  A
C444        H449   1.083       .  S
C445        C446   1.413       .  A
C446       Br447   1.919       .  S
C451        C452   1.409       .  A
C451        C456   1.395       .  A
C451        H458   1.083       .  S
C452        C453   1.414       .  A
C453        C454   1.402       .  A
C453       Br460   1.921       .  S
C454        C455   1.406       .  A
C454        H459   1.083       .  S
C455        C456   1.409       .  A
C456       Br457   1.922       .  S
C461        C462   1.408       .  A
C461        C466   1.399       .  A
C461        H468   1.083       .  S
C462        C463   1.418       .  A
C463        C464   1.402       .  A
C463       Br470   1.921       .  S
C464        C465   1.400       .  A
C464        H469   1.084       .  S
C465        C466   1.407       .  A
C466       Br467   1.921       .  S
C471        C472   1.409       .  A
C471        C476   1.401       .  A
C471        H478   1.083       .  S
C472        C473   1.418       .  A
C473        C474   1.401       .  A
C473       Br480   1.922       .  S
C474        C475   1.403       .  A
C474        H479   1.084       .  S
C475        C476   1.409       .  A
C476       Br477   1.917   1_655  S
C481        C482   1.404       .  A
C481        C486   1.402       .  A
C481        H488   1.084       .  S
C482        C483   1.407       .  A
C483        C484   1.395       .  A
C483       Br490   1.920       .  S
C484        C485   1.401       .  A
C484        H489   1.084       .  S
C485        C486   1.406       .  A
C486       Br487   1.917       .  S
C491        C492   1.409       .  A
C491        C496   1.404       .  A
C491        H498   1.083       .  S
C492        C493   1.415       .  A
C493        C494   1.400       .  A
C493       Br500   1.922       .  S
C494        C495   1.405       .  A
C494        H499   1.084       .  S
C495        C496   1.412       .  A
C496       Br497   1.920       .  S
C501        C502   1.405       .  A
C501        C506   1.398       .  A
C501        H508   1.083       .  S
C502        C503   1.409       .  A
C503        C504   1.397       .  A
C503       Br510   1.916   1_556  S
C504        C505   1.407       .  A
C504        H509   1.084       .  S
C505        C506   1.415       .  A
C506       Br507   1.919       .  S
C511        C512   1.407       .  A
C511        C516   1.404       .  A
C511        H518   1.082       .  S
C512        C513   1.412       .  A
C513        C514   1.398       .  A
C513       Br520   1.921   1_556  S
C514        C515   1.403       .  A
C514        H519   1.082       .  S
C515        C516   1.408       .  A
C516       Br517   1.913       .  S
C521        C522   1.408       .  A
C521        C526   1.403       .  A
C521        H528   1.083       .  S
C522        C523   1.421       .  A
C523        C524   1.399       .  A
C523       Br530   1.922       .  S
C524        C525   1.401       .  A
C524        H529   1.083       .  S
C525        C526   1.411       .  A
C526       Br527   1.919       .  S
C531        C532   1.404       .  A
C531        C536   1.400       .  A
C531        H538   1.084       .  S
C532        C533   1.415       .  A
C533        C534   1.403       .  A
C533       Br540   1.920       .  S
C534        C535   1.407       .  A
C534        H539   1.083       .  S
C535        C536   1.415       .  A
C536       Br537   1.922       .  S
C541        C542   1.397       .  A
C541        C546   1.384       .  A
C541        H548   1.083       .  S
C542        C543   1.415       .  A
C543        C544   1.408       .  A
C543       Br550   1.917       .  S
C544        C545   1.405       .  A
C544        H549   1.083       .  S
C545        C546   1.414       .  A
C546       Br547   1.921       .  S
C551        C552   1.404   1_554  A
C551        C556   1.404   1_554  A
C551        H558   1.084       .  S
C552        C553   1.411       .  A
C553        C554   1.402       .  A
C553       Br560   1.920   1_545  S
C554        C555   1.408       .  A
C554        H559   1.083       .  S
C555        C556   1.421       .  A
C556       Br557   1.923   1_556  S
C561        C562   1.404       .  A
C561        C566   1.404       .  A
C561        H568   1.083       .  S
C562        C563   1.414       .  A
C563        C564   1.401       .  A
C563       Br570   1.922   1_556  S
C564        C565   1.408       .  A
C564        H569   1.082       .  S
C565        C566   1.420       .  A
C566       Br567   1.921       .  S
C571        C572   1.401       .  A
C571        C576   1.397       .  A
C571        H578   1.084       .  S
C572        C573   1.407       .  A
C573        C574   1.401       .  A
C573       Br580   1.915       .  S
C574        C575   1.403       .  A
C574        H579   1.084       .  S
C575        C576   1.408       .  A
C576       Br577   1.918       .  S
C581        C582   1.405       .  A
C581        C586   1.409       .  A
C581        H588   1.083       .  S
C582        C583   1.409       .  A
C583        C584   1.386       .  A
C583       Br590   1.916       .  S
C584        C585   1.399       .  A
C584        H589   1.084       .  S
C585        C586   1.413       .  A
C586       Br587   1.918       .  S
C591        C592   1.407       .  A
C591        C596   1.406       .  A
C591        H598   1.083       .  S
C592        C593   1.409       .  A
C593        C594   1.391       .  A
C593       Br600   1.920       .  S
C594        C595   1.402       .  A
C594        H599   1.084       .  S
C595        C596   1.408       .  A
C596       Br597   1.918       .  S
C601        C602   1.408       .  A
C601        C606   1.405       .  A
C601        H608   1.083       .  S
C602        C603   1.422       .  A
C603        C604   1.400       .  A
C603       Br610   1.924       .  S
C604        C605   1.402       .  A
C604        H609   1.084       .  S
C605        C606   1.415       .  A
C606       Br607   1.921       .  S
C611        C612   1.412       .  A
C611        C616   1.398       .  A
C611        H618   1.081       .  S
C612        C613   1.418       .  A
C613        C614   1.404   1_565  A
C613       Br620   1.921       .  S
C614        C615   1.404       .  A
C614        H619   1.083       .  S
C615        C616   1.403   1_545  A
C616       Br617   1.920       .  S
C621        C622   1.404       .  A
C621        C626   1.398       .  A
C621        H628   1.084       .  S
C622        C623   1.413       .  A
C623        C624   1.401       .  A
C623       Br630   1.920       .  S
C624        C625   1.402       .  A
C624        H629   1.084       .  S
C625        C626   1.406       .  A
C626       Br627   1.916       .  S
C631        C632   1.404       .  A
C631        C636   1.400       .  A
C631        H638   1.083       .  S
C632        C633   1.406       .  A
C633        C634   1.399       .  A
C633       Br640   1.919       .  S
C634        C635   1.407       .  A
C634        H639   1.083       .  S
C635        C636   1.412       .  A
C636       Br637   1.920       .  S
C641        C642   1.403       .  A
C641        C646   1.398       .  A
C641        H648   1.084       .  S
C642        C643   1.409       .  A
C643        C644   1.399       .  A
C643       Br650   1.920       .  S
C644        C645   1.407       .  A
C644        H649   1.083       .  S
C645        C646   1.412       .  A
C646       Br647   1.914       .  S
C651        C652   1.407       .  A
C651        C656   1.395       .  A
C651        H658   1.083       .  S
C652        C653   1.414       .  A
C653        C654   1.398       .  A
C653       Br660   1.922       .  S
C654        C655   1.406       .  A
C654        H659   1.084   1_556  S
C655        C656   1.410       .  A
C656       Br657   1.917       .  S
C661        C662   1.403       .  A
C661        C666   1.398       .  A
C661        H668   1.081       .  S
C662        C663   1.408       .  A
C663        C664   1.404       .  A
C663       Br670   1.917       .  S
C664        C665   1.406       .  A
C664        H669   1.083       .  S
C665        C666   1.410       .  A
C666       Br667   1.920   1_556  S
C671        C672   1.408       .  A
C671        C676   1.408       .  A
C671        H678   1.083       .  S
C672        C673   1.406       .  A
C673        C674   1.396       .  A
C673       Br680   1.918       .  S
C674        C675   1.407       .  A
C674        H679   1.083       .  S
C675        C676   1.413       .  A
C676       Br677   1.919       .  S
C681        C682   1.403       .  A
C681        C686   1.399       .  A
C681        H688   1.083       .  S
C682        C683   1.408       .  A
C683        C684   1.400       .  A
C683       Br690   1.920       .  S
C684        C685   1.408       .  A
C684        H689   1.082       .  S
C685        C686   1.413       .  A
C686       Br687   1.921       .  S
C691        C692   1.401       .  A
C691        C696   1.402       .  A
C691        H698   1.083       .  S
C692        C693   1.409       .  A
C693        C694   1.397       .  A
C693       Br700   1.920       .  S
C694        C695   1.402       .  A
C694        H699   1.084       .  S
C695        C696   1.411       .  A
C696       Br697   1.919   1_556  S
C701        C702   1.403       .  A
C701        C706   1.402       .  A
C701        H708   1.084       .  S
C702        C703   1.403       .  A
C703        C704   1.397       .  A
C703       Br710   1.919   1_556  S
C704        C705   1.411       .  A
C704        H709   1.082       .  S
C705        C706   1.418       .  A
C706       Br707   1.922       .  S
C711        C712   1.405       .  A
C711        C716   1.408       .  A
C711        H718   1.083       .  S
C712        C713   1.415       .  A
C713        C714   1.387       .  A
C713       Br720   1.919       .  S
C714        C715   1.396       .  A
C714        H719   1.084       .  S
C715        C716   1.412       .  A
C716       Br717   1.917       .  S
C721        C722   1.399       .  A
C721        C726   1.405       .  A
C721        H728   1.083       .  S
C722        C723   1.406       .  A
C723        C724   1.402       .  A
C723       Br730   1.921       .  S
C724        C725   1.411   1_565  A
C724        H729   1.083       .  S
C725        C726   1.421   1_545  A
C726       Br727   1.921   1_566  S
C731        C732   1.408       .  A
C731        C736   1.402       .  A
C731        H738   1.084       .  S
C732        C733   1.413       .  A
C733        C734   1.403       .  A
C733       Br740   1.918       .  S
C734        C735   1.406       .  A
C734        H739   1.084       .  S
C735        C736   1.413       .  A
C736       Br737   1.920       .  S
C741        C742   1.403       .  A
C741        C746   1.402       .  A
C741        H748   1.083       .  S
C742        C743   1.409       .  A
C743        C744   1.398       .  A
C743       Br750   1.920       .  S
C744        C745   1.405       .  A
C744        H749   1.083       .  S
C745        C746   1.412       .  A
C746       Br747   1.916       .  S
C751        C752   1.404       .  A
C751        C756   1.408       .  A
C751        H758   1.083       .  S
C752        C753   1.408       .  A
C753        C754   1.391       .  A
C753       Br760   1.917       .  S
C754        C755   1.402       .  A
C754        H759   1.084       .  S
C755        C756   1.412       .  A
C756       Br757   1.916       .  S
C761        C762   1.406       .  A
C761        C766   1.411       .  A
C761        H768   1.083       .  S
C762        C763   1.414       .  A
C763        C764   1.398       .  A
C763       Br770   1.919       .  S
C764        C765   1.405       .  A
C764        H769   1.084       .  S
C765        C766   1.416       .  A
C766       Br767   1.917       .  S
C771        C772   1.408       .  A
C771        C776   1.394       .  A
C771        H778   1.084       .  S
C772        C773   1.416       .  A
C773        C774   1.406       .  A
C773       Br780   1.920       .  S
C774        C775   1.409       .  A
C774        H779   1.084       .  S
C775        C776   1.412       .  A
C776       Br777   1.923       .  S
C781        C782   1.400       .  A
C781        C786   1.404       .  A
C781        H788   1.083       .  S
C782        C783   1.407       .  A
C783        C784   1.400       .  A
C783       Br790   1.920       .  S
C784        C785   1.405       .  A
C784        H789   1.083       .  S
C785        C786   1.416       .  A
C786       Br787   1.920       .  S
C791        C792   1.412       .  A
C791        C796   1.399       .  A
C791        H798   1.082       .  S
C792        C793   1.421       .  A
C793        C794   1.405       .  A
C793       Br800   1.917       .  S
C794        C795   1.400       .  A
C794        H799   1.083       .  S
C795        C796   1.402       .  A
C796       Br797   1.920       .  S
