geometry optimzed in LAMMPS
_audit_creation_date              2020-12-01 
_audit_creation_method            'lammps2cif' 
_symmetry_space_group_name_H-M    'P1' 
_symmetry_Int_Tables_number       1 
_symmetry_cell_setting            triclinic 
loop_ 
_symmetry_equiv_pos_as_xyz 
  x,y,z 
_cell_length_a                    27.18768171 
_cell_length_b                    26.893999561813256 
_cell_length_c                    95.10530331924754 
_cell_angle_alpha                 90.30061380627076 
_cell_angle_beta                  89.5140002387597 
_cell_angle_gamma                 120.21153882167292 
loop_ 
_atom_site_label 
_atom_site_type_symbol 
_atom_site_fract_x 
_atom_site_fract_y 
_atom_site_fract_z 
_atom_site_charge 
Zn1        Zn  0.12965308  0.36749358  0.37091249     1.49700
Zn2        Zn  0.13554637  0.25165771  0.36956023     1.49400
Zn3        Zn  0.17029223  0.33004770  0.34185777     1.49100
Zn4        Zn  0.24765184  0.37117287  0.37009872     1.49500
O5          O  0.17042338  0.33067221  0.36256261    -1.83900
O6          O  0.06893800  0.31567881  0.38460333    -0.74500
O7          O  0.09794531  0.19059311  0.35500889    -0.74300
O8          O  0.12630269  0.37381221  0.33567253    -0.73800
O9          O  0.08136860  0.24031186  0.38488634    -0.74500
O10         O  0.09848214  0.39667629  0.35572098    -0.74100
O11         O  0.12600616  0.24068665  0.33505736    -0.74700
O12         O  0.30749794  0.39623925  0.35519952    -0.74100
O13         O  0.18881814  0.23490241  0.37980993    -0.74900
O14         O  0.25811910  0.37576493  0.33524991    -0.74200
O15         O  0.25730548  0.32356939  0.38446519    -0.74700
O16         O  0.26345035  0.43854738  0.38192286    -0.74600
O17         O  0.17870433  0.43046483  0.38459472    -0.74400
C18         C  0.05993227  0.26876525  0.39007534     0.77400
C19         C  0.09972453  0.19210759  0.34167903     0.77900
C20         C  0.10073928  0.39651671  0.34231017     0.76800
C21         C  0.30590322  0.39753071  0.34186601     0.77200
C22         C  0.23067548  0.27020147  0.38717315     0.78300
C23         C  0.23056466  0.45253341  0.38807030     0.77400
Zn24       Zn  0.45725044  0.03282346  0.32288802     1.49700
Zn25       Zn  0.45846716  0.40841789  0.32277007     1.49400
Zn26       Zn  0.99474441  0.47374638  0.29618735     1.49100
Zn27       Zn  0.07837466  0.03310707  0.32020473     1.49500
O28         O  0.00049997  0.48760632  0.31593476    -1.83900
O29         O  0.38224207  0.47397502  0.32866023    -0.74500
O30         O  0.41944750  0.35181316  0.30625823    -0.74300
O31         O  0.41692418  0.97828394  0.29272453    -0.73800
O32         O  0.38977205  0.39746682  0.33444449    -0.74500
O33         O  0.43265556  0.05471198  0.30472036    -0.74100
O34         O  0.48888495  0.40050588  0.29133080    -0.74700
O35         O  0.11296427  0.05402054  0.29995740    -0.74100
O36         O  0.01786617  0.39299886  0.33263228    -0.74900
O37         O  0.04722275  0.07194447  0.29242371    -0.74200
O38         O  0.10121049  0.47587023  0.33063523    -0.74700
O39         O  0.09902242  0.11091062  0.33056220    -0.74600
O40         O  0.01597243  0.10960244  0.33266682    -0.74400
C41         C  0.36170894  0.42407380  0.33433288     0.77400
C42         C  0.44188648  0.35643303  0.29418446     0.77900
C43         C  0.41341390  0.02321627  0.29377683     0.76800
C44         C  0.09403380  0.07376713  0.29054126     0.77200
C45         C  0.07196239  0.42299301  0.33457024     0.78300
C46         C  0.07029276  0.13516446  0.33425297     0.77400
C47         C  0.17681667  0.35059018  0.82005479     0.45700
H48         H  0.17685874  0.34670383  0.83167710    -0.03300
C49         C  0.17615202  0.35940877  0.79309622     0.45800
H50         H  0.17621993  0.36365012  0.78145162    -0.03300
C51         C  0.14570963  0.38149856  0.81512538    -0.17000
C52         C  0.23669173  0.38443978  0.81361415    -0.16800
C53         C  0.14756741  0.29210378  0.81250007    -0.17100
C54         C  0.14525490  0.38586424  0.80078926    -0.17100
C55         C  0.23588459  0.38929637  0.79929254    -0.16700
C56         C  0.14822038  0.29695547  0.79808261    -0.17000
C57         C  0.51148340  0.52421090  0.87147307     0.45700
H58         H  0.51378962  0.52365013  0.85980636    -0.03300
C59         C  0.50732079  0.52719264  0.89842359     0.45800
H60         H  0.50455635  0.52954683  0.91003278    -0.03300
C61         C  0.02715806  0.07775770  0.87680044    -0.17000
C62         C  0.45114661  0.48682557  0.87734764    -0.16800
C63         C  0.04724373  0.50201431  0.87866929    -0.17100
C64         C  0.02460448  0.08007820  0.89118072    -0.17100
C65         C  0.44924477  0.48607961  0.89180871    -0.16700
C66         C  0.04683449  0.50561809  0.89313757    -0.17000
C67         C  0.17530688  0.33755344  0.55954490     0.45700
H68         H  0.17497035  0.33896309  0.57125096    -0.03300
C69         C  0.17603554  0.33407848  0.53246485     0.45800
H70         H  0.17666866  0.33298953  0.52079434    -0.03300
C71         C  0.20073356  0.39674487  0.55279600    -0.17000
C72         C  0.20968473  0.31148227  0.55366628    -0.16800
C73         C  0.11603523  0.30265753  0.55325625    -0.17100
C74         C  0.20167904  0.39536205  0.53837299    -0.17100
C75         C  0.21013123  0.30956234  0.53932031    -0.16700
C76         C  0.11582367  0.30044712  0.53886363    -0.17000
C77         C  0.34414090  0.17971149  0.45399528     0.45700
H78         H  0.34857969  0.18439690  0.44236589    -0.03300
C79         C  0.33542430  0.17252513  0.48097369     0.45800
H80         H  0.33164370  0.16958301  0.49260565    -0.03300
C81         C  0.31097590  0.11730027  0.45911087    -0.17000
C82         C  0.40138207  0.20722827  0.46147249    -0.16800
C83         C  0.31235086  0.20799944  0.46022852    -0.17100
C84         C  0.30575847  0.11343081  0.47354414    -0.17100
C85         C  0.39721348  0.20304488  0.47579992    -0.16700
C86         C  0.30893552  0.20543662  0.47450809    -0.17000
Zn87       Zn  0.25926185  0.12143291  0.64431905     1.49700
Zn88       Zn  0.37199941  0.24643967  0.64400187     1.49400
Zn89       Zn  0.33917873  0.16696870  0.67207294     1.49100
Zn90       Zn  0.38391102  0.13401452  0.64362210     1.49500
O91         O  0.33845780  0.16701588  0.65146176    -1.83900
O92         O  0.24126656  0.16813813  0.63131860    -0.74500
O93         O  0.40171525  0.30917041  0.65862117    -0.74300
O94         O  0.25007047  0.12127250  0.67906748    -0.73800
O95         O  0.31952210  0.25395583  0.63082885    -0.74500
O96         O  0.19833799  0.08883365  0.65956132    -0.74100
O97         O  0.38433556  0.25779808  0.67826377    -0.74700
O98         O  0.41593719  0.10262444  0.65802251    -0.74100
O99         O  0.43497257  0.26504452  0.63059985    -0.74900
O100        O  0.38400382  0.12194377  0.67780527    -0.74200
O101        O  0.44460508  0.18801598  0.63018044    -0.74700
O102        O  0.33743493  0.07157554  0.63020792    -0.74600
O103        O  0.25079836  0.06021860  0.63070647    -0.74400
C104        C  0.27048247  0.21833753  0.62618860     0.77400
C105        C  0.40511314  0.30707083  0.67190145     0.77900
C106        C  0.20099429  0.09364792  0.67290662     0.76800
C107        C  0.41113112  0.10016882  0.67136071     0.77200
C108        C  0.45674551  0.23698892  0.62540491     0.78300
C109        C  0.28726667  0.04897762  0.62543651     0.77400
Zn110      Zn  0.00708570  0.00296565  0.68026376     1.49700
Zn111      Zn  0.08267219  0.04546669  0.70936247     1.49400
Zn112      Zn  0.46295400  0.04113120  0.70808025     1.49100
Zn113      Zn  0.46243126  0.42386272  0.70781807     1.49500
O114        O  0.00520525  0.00402358  0.70093297    -1.83900
O115        O  0.09690276  0.04431121  0.67456474    -0.74500
O116        O  0.09501634  0.11345756  0.72134783    -0.74300
O117        O  0.43173004  0.06898325  0.69278542    -0.73800
O118        O  0.14672904  0.07043452  0.69453119    -0.74500
O119        O  0.46531412  0.04971255  0.67327183    -0.74100
O120        O  0.01092532  0.10783207  0.72054480    -0.74700
O121        O  0.39595783  0.40673329  0.71991091    -0.74100
O122        O  0.08662370  0.49755798  0.72450940    -0.74900
O123        O  0.40069287  0.49110460  0.72182076    -0.74200
O124        O  0.00788830  0.41276781  0.72239312    -0.74700
O125        O  0.43516634  0.36112718  0.69323119    -0.74600
O126        O  0.45631767  0.41288113  0.67359732    -0.74400
C127        C  0.14526290  0.06772195  0.68109697     0.77400
C128        C  0.06063837  0.12955612  0.72558279     0.77900
C129        C  0.43755596  0.07134482  0.67947534     0.76800
C130        C  0.38132374  0.43962915  0.72587173     0.77200
C131        C  0.05295845  0.44687415  0.72899130     0.78300
C132        C  0.43382260  0.36341963  0.67992136     0.77400
C133        C  0.28658019  0.13188072  0.22706835     0.45700
H134        H  0.27734625  0.12835903  0.23853307    -0.03300
C135        C  0.30411041  0.13632701  0.20036721     0.45800
H136        H  0.31270750  0.13916772  0.18886255    -0.03300
C137        C  0.23249208  0.11054581  0.21840379    -0.17000
C138        C  0.32800292  0.19319030  0.22191984    -0.16800
C139        C  0.31422465  0.09686920  0.22243051    -0.17100
C140        C  0.24157229  0.11347662  0.20418108    -0.17100
C141        C  0.33757313  0.19524275  0.20757008    -0.16700
C142        C  0.32177303  0.09791474  0.20814994    -0.17000
C143        C  0.99149934  0.01469160  0.14661866     0.45700
H144        H  0.49686099  0.01557252  0.15819671    -0.03300
C145        C  0.97793374  0.00998422  0.11980136     0.45800
H146        H  0.97080631  0.00763748  0.10828822    -0.03300
C147        C  0.47468383  0.41596681  0.14454082    -0.17000
C148        C  0.45318368  0.03802811  0.14184523    -0.16800
C149        C  0.04768512  0.04905994  0.13840029    -0.17100
C150        C  0.47642983  0.41223310  0.13019432    -0.17100
C151        C  0.44625360  0.03549402  0.12754929    -0.16700
C152        C  0.04064599  0.04596194  0.12406451    -0.17000
Zn153      Zn  0.15971154  0.32472507  0.96964222     1.49700
Zn154      Zn  0.13383588  0.25552382  0.99393000     1.49400
Zn155      Zn  0.25293704  0.37574625  0.99176669     1.49100
Zn156      Zn  0.13465997  0.37985105  0.99339885     1.49500
O157        O  0.17217066  0.33638906  0.98900927    -1.83900
O158        O  0.08458799  0.25770913  0.96574734    -0.74500
O159        O  0.18947070  0.24017897  0.00505474    -0.74300
O160        O  0.29096490  0.38781468  0.97228030    -0.73800
O161        O  0.11573158  0.20636498  0.97582904    -0.74500
O162        O  0.22017233  0.31831076  0.96002464    -0.74100
O163        O  0.27271202  0.32239219  0.00302610    -0.74700
O164        O  0.19184128  0.45155334  0.00435596    -0.74100
O165        O  0.05930458  0.23956034  0.00366989    -0.74900
O166        O  0.27478079  0.45340003  0.00162819    -0.74200
O167        O  0.05966989  0.32336824  0.00346277    -0.74700
O168        O  0.11637867  0.41152367  0.97561492    -0.74600
O169        O  0.16092242  0.38726045  0.95995311    -0.74400
C170        C  0.09188843  0.21507722  0.96541909     0.75900
C171        C  0.24338816  0.26981431  0.00702242     0.77900
C172        C  0.27177688  0.35780711  0.96105281     0.76800
C173        C  0.24594290  0.47653698  0.00595005     0.77200
C174        C  0.03547562  0.26949429  0.00635109     0.78300
C175        C  0.13427274  0.41282701  0.96309870     0.77400
Zn176      Zn  0.33411614  0.16231278  0.04817282     1.49700
Zn177      Zn  0.38083028  0.12880420  0.02559591     1.49400
Zn178      Zn  0.26156171  0.12835474  0.02444332     1.49100
Zn179      Zn  0.38091109  0.25136510  0.02714089     1.49500
O180        O  0.34023282  0.16912986  0.02888615    -1.83900
O181        O  0.31707669  0.08565666  0.05376411    -0.74500
O182        O  0.32769603  0.05388322  0.01483211    -0.74300
O183        O  0.21347703  0.10306479  0.04229247    -0.73800
O184        O  0.39971123  0.10600608  0.04461291    -0.74500
O185        O  0.27350460  0.17404832  0.05582250    -0.74100
O186        O  0.24584397  0.05488456  0.01388375    -0.74700
O187        O  0.32476210  0.27180787  0.01745156    -0.74100
O188        O  0.45445441  0.18655504  0.01564196    -0.74900
O189        O  0.24453664  0.18644530  0.01498681    -0.74200
O190        O  0.45456214  0.27021815  0.01627672    -0.74700
O191        O  0.40469601  0.28971870  0.04697772    -0.74600
O192        O  0.40592005  0.21663137  0.05701737    -0.74400
C193        C  0.36269436  0.08429880  0.05444549     0.77400
C194        C  0.27503439  0.03019202  0.01147028     0.77900
C195        C  0.22432150  0.13149814  0.05372881     0.76800
C196        C  0.27253160  0.24139788  0.01358441     0.77200
C197        C  0.47829017  0.24060948  0.01305846     0.78300
C198        C  0.41765473  0.26829150  0.05730317     0.77400
C199        C  0.45030048  0.36037104  0.12133244    -0.05000
C200        C  0.39349386  0.33814704  0.11732253    -0.04900
C201        C  0.37537736  0.31368059  0.10402489    -0.23100
C202        C  0.41452591  0.31327958  0.09440425     0.19100
C203        C  0.47056915  0.33118926  0.09877728     0.16300
C204        C  0.48726222  0.35230878  0.11246473    -0.18100
C205        C  0.50994236  0.33139476  0.08909461    -0.19900
C206        C  0.49399551  0.31468552  0.07514048    -0.12500
C207        C  0.43895727  0.29867428  0.07065120     0.04200
C208        C  0.39915018  0.29714590  0.08037631    -0.24600
H209        H  0.36493628  0.34588668  0.12370770     0.09200
H210        H  0.33212108  0.29968219  0.10086054     0.12800
H211        H  0.53121270  0.36969197  0.11554596     0.12800
H212        H  0.55296671  0.34464359  0.09229116     0.12500
H213        H  0.52412501  0.31298641  0.06791724     0.13100
H214        H  0.35573522  0.28186007  0.07707432     0.15000
C215        C  0.41342246  0.05393705  0.11898550    -0.05000
C216        C  0.43773281  0.11276230  0.11608589    -0.04900
C217        C  0.43140122  0.13081323  0.10277315    -0.23100
C218        C  0.40233376  0.09000807  0.09216625     0.19100
C219        C  0.37372090  0.03082134  0.09547702     0.16300
C220        C  0.37654468  0.01362145  0.10913361    -0.18100
C221        C  0.34599246  0.98966488  0.08487950    -0.19900
C222        C  0.34611181  0.00706740  0.07107668    -0.12500
C223        C  0.37444539  0.06561661  0.06771213     0.04200
C224        C  0.40235235  0.10704600  0.07826824    -0.24600
H225        H  0.46689837  0.14447444  0.12347965     0.09200
H226        H  0.45302370  0.17644191  0.10045003     0.12800
H227        H  0.41503091  0.44464414  0.10400719     0.12800
H228        H  0.38423968  0.43873927  0.07954672     0.12500
H229        H  0.32259058  0.97499190  0.06310312     0.13100
H230        H  0.42257863  0.15238877  0.07573126     0.15000
C231        C  0.08551923  0.07032425  0.11297729    -0.05000
C232        C  0.13407026  0.12518206  0.11407214    -0.04900
C233        C  0.17093596  0.14935258  0.10250456    -0.23100
C234        C  0.15883347  0.11942096  0.08965250     0.19100
C235        C  0.11008595  0.06443826  0.08856049     0.16300
C236        C  0.07517342  0.03998387  0.10024297    -0.18100
C237        C  0.09632982  0.03452645  0.07576253    -0.19900
C238        C  0.13195775  0.05816466  0.06414473    -0.12500
C239        C  0.18200564  0.11181908  0.06518650     0.04200
C240        C  0.19471090  0.14288598  0.07792073    -0.24600
H241        H  0.14251563  0.15006466  0.12363549     0.09200
H242        H  0.20812568  0.19181214  0.10350853     0.12800
H243        H  0.08752279  0.46268721  0.10659838     0.12800
H244        H  0.11313169  0.46424873  0.08224234     0.12500
H245        H  0.12140428  0.03333019  0.05450567     0.13100
H246        H  0.23325831  0.18439765  0.07884133     0.15000
C247        C  0.35201159  0.07493891  0.20007874    -0.05000
C248        C  0.41135646  0.10219414  0.20101117    -0.04900
C249        C  0.44320644  0.10094375  0.18955691    -0.23100
C250        C  0.41579691  0.07398093  0.17697782     0.19100
C251        C  0.35589116  0.04393388  0.17629864     0.16300
C252        C  0.32441377  0.04248228  0.18811523    -0.18100
C253        C  0.32861469  0.01830229  0.16361953    -0.19900
C254        C  0.36063232  0.02083294  0.15178802    -0.12500
C255        C  0.42017909  0.04924684  0.15250349     0.04200
C256        C  0.44731369  0.07688262  0.16504810    -0.24600
H257        H  0.43319623  0.12864342  0.21005454     0.09200
H258        H  0.48921532  0.12392716  0.19022509     0.12800
H259        H  0.27851042  0.02114809  0.18753297     0.12800
H260        H  0.28260375  0.99557945  0.16293304     0.12500
H261        H  0.33873378  0.99768579  0.14237223     0.13100
H262        H  0.99295401  0.09885116  0.16572602     0.15000
C263        C  0.37430879  0.24546885  0.19859035    -0.05000
C264        C  0.43243099  0.26397243  0.19691892    -0.04900
C265        C  0.46439940  0.30171259  0.18606029    -0.23100
C266        C  0.43776374  0.31778269  0.17594905     0.19100
C267        C  0.37851775  0.29626298  0.17699056     0.16300
C268        C  0.34759526  0.26143119  0.18843808    -0.18100
C269        C  0.35099922  0.30916880  0.16644165    -0.19900
C270        C  0.38217118  0.34488274  0.15524424    -0.12500
C271        C  0.44122505  0.36790755  0.15433294     0.04200
C272        C  0.46895186  0.35426923  0.16471692    -0.24600
H273        H  0.45253254  0.24643349  0.20339016     0.09200
H274        H  0.50932523  0.31590384  0.18514994     0.12800
H275        H  0.30188115  0.24369067  0.18901412     0.12800
H276        H  0.30555352  0.29275676  0.16702218     0.12500
H277        H  0.36061485  0.35725247  0.14775628     0.13100
H278        H  0.51481994  0.37323576  0.16421919     0.15000
C279        C  0.20012252  0.10448544  0.19305189    -0.05000
C280        C  0.16545591  0.12914376  0.19428530    -0.04900
C281        C  0.13475585  0.13047369  0.18273600    -0.23100
C282        C  0.13798535  0.10676355  0.16982438     0.19100
C283        C  0.17190251  0.08097743  0.16851452     0.16300
C284        C  0.20288711  0.08032833  0.18011152    -0.18100
C285        C  0.17342383  0.05554258  0.15568406    -0.19900
C286        C  0.13729559  0.05089892  0.14472025    -0.12500
C287        C  0.10136331  0.07388901  0.14630670     0.04200
C288        C  0.10558294  0.10578545  0.15840311    -0.24600
H289        H  0.16420688  0.14986700  0.20395434     0.09200
H290        H  0.10851736  0.15008801  0.18389178     0.12800
H291        H  0.22978405  0.06161381  0.17897094     0.12800
H292        H  0.19964098  0.03595434  0.15448188     0.12500
H293        H  0.13403717  0.02544080  0.13553166     0.13100
H294        H  0.07938682  0.12524626  0.15938868     0.15000
C295        C  0.22198873  0.44644238  0.56228331    -0.05000
C296        C  0.18445579  0.46518256  0.56655562    -0.04900
C297        C  0.18930307  0.48950941  0.57984214    -0.23100
C298        C  0.23044360  0.49331978  0.58925527     0.19100
C299        C  0.26976357  0.47660584  0.58482345     0.16300
C300        C  0.26643496  0.45515019  0.57121134    -0.18100
C301        C  0.30962582  0.47837764  0.59433200    -0.19900
C302        C  0.31224245  0.99801431  0.60734658    -0.12500
C303        C  0.27464530  0.01588633  0.61224133     0.04200
C304        C  0.23302456  0.01347686  0.60311799    -0.24600
H305        H  0.14762207  0.45546645  0.56030311     0.09200
H306        H  0.15847272  0.50160636  0.58309107     0.12800
H307        H  0.29392815  0.43841364  0.56818969     0.12800
H308        H  0.33966540  0.46512650  0.59114275     0.12500
H309        H  0.34494505  0.99989896  0.61412978     0.13100
H310        H  0.20417528  0.02773300  0.60669893     0.15000
C311        C  0.06711344  0.27782299  0.56292150    -0.05000
C312        C  0.03911651  0.21891454  0.56594940    -0.04900
C313        C  0.01083526  0.19880813  0.57883115    -0.23100
C314        C  0.01174220  0.23778487  0.58886737     0.19100
C315        C  0.03683270  0.29664505  0.58540375     0.16300
C316        C  0.06276506  0.31579619  0.57228984    -0.18100
C317        C  0.53843711  0.33594532  0.59537397    -0.19900
C318        C  0.51523056  0.31705288  0.60874610    -0.12500
C319        C  0.49057543  0.25868358  0.61238611     0.04200
C320        C  0.98908210  0.21927663  0.60237138    -0.24600
H321        H  0.04334700  0.18943317  0.55892550     0.09200
H322        H  0.99134085  0.15340772  0.58128517     0.12800
H323        H  0.08474369  0.36126508  0.56993702     0.12800
H324        H  0.55768504  0.38124738  0.59283684     0.12500
H325        H  0.51556734  0.34788019  0.61617132     0.13100
H326        H  0.96854315  0.17383314  0.60492542     0.15000
C327        C  0.25012217  0.23247368  0.61335966    -0.05000
C328        C  0.19238369  0.20046699  0.60975439    -0.04900
C329        C  0.17456804  0.20517737  0.59638471    -0.23100
C330        C  0.21429016  0.24174848  0.58638685     0.19100
C331        C  0.27237061  0.27524464  0.58994057     0.16300
C332        C  0.28993545  0.27053994  0.60344311    -0.18100
C333        C  0.31150682  0.31331910  0.57997442    -0.19900
C334        C  0.29234728  0.32090363  0.56698061    -0.12500
C335        C  0.23438659  0.28874452  0.56363304     0.04200
C336        C  0.19620321  0.24732421  0.57310686    -0.24600
H337        H  0.16119655  0.17046396  0.61715986     0.09200
H338        H  0.12978996  0.17988915  0.59382554     0.12800
H339        H  0.33479060  0.29467216  0.60601894     0.12800
H340        H  0.35618343  0.33958818  0.58254496     0.12500
H341        H  0.32192155  0.35504323  0.56011026     0.13100
H342        H  0.15119005  0.22382594  0.57067921     0.15000
C343        C  0.22327534  0.44458673  0.52865028    -0.05000
C344        C  0.20351550  0.48358226  0.52954233    -0.04900
C345        C  0.21449433  0.52251205  0.51869259    -0.23100
C346        C  0.24433786  0.52203681  0.50665930     0.19100
C347        C  0.25629810  0.98217224  0.50402318     0.16300
C348        C  0.25506052  0.44549038  0.51679665    -0.18100
C349        C  0.28088166  0.97814532  0.49131428    -0.19900
C350        C  0.29249952  0.01787516  0.48052449    -0.12500
C351        C  0.27835606  0.06097515  0.48224687     0.04200
C352        C  0.24961932  0.06195982  0.49449960    -0.24600
H353        H  0.17681978  0.48198791  0.53815495     0.09200
H354        H  0.19823390  0.55184643  0.51952979     0.12800
H355        H  0.27006806  0.41509095  0.51600109     0.12800
H356        H  0.29320625  0.94584073  0.48995612     0.12500
H357        H  0.31572123  0.01724171  0.47128298     0.13100
H358        H  0.23811208  0.09486676  0.49582080     0.15000
C359        C  0.06512454  0.27670156  0.52974139    -0.05000
C360        C  0.02055486  0.28739000  0.53264767    -0.04900
C361        C  0.97878487  0.27511779  0.52259187    -0.23100
C362        C  0.98167075  0.25298065  0.50941409     0.19100
C363        C  0.52545833  0.24074462  0.50655617     0.16300
C364        C  0.06626737  0.25196501  0.51678973    -0.18100
C365        C  0.52862077  0.21889294  0.49337368    -0.19900
C366        C  0.48837837  0.20893845  0.48308476    -0.12500
C367        C  0.44468249  0.22107588  0.48579729     0.04200
C368        C  0.44183298  0.24332735  0.49900331    -0.24600
H369        H  0.01963832  0.30822666  0.54232500     0.09200
H370        H  0.94540352  0.28480181  0.52493172     0.12800
H371        H  0.10041963  0.24385941  0.51434093     0.12800
H372        H  0.56188860  0.20897531  0.49107208     0.12500
H373        H  0.49022200  0.18962342  0.47324712     0.13100
H374        H  0.40819277  0.25248594  0.50130180     0.15000
C375        C  0.23947558  0.28822923  0.53032909    -0.05000
C376        C  0.29837688  0.32220274  0.52824802    -0.04900
C377        C  0.32366987  0.31492599  0.51617890    -0.23100
C378        C  0.28978069  0.27523702  0.50585366     0.19100
C379        C  0.23057250  0.24000085  0.50809091     0.16300
C380        C  0.20638970  0.24527268  0.52059449    -0.18100
C381        C  0.19647225  0.20099157  0.49766458    -0.19900
C382        C  0.22153234  0.19432527  0.48548165    -0.12500
C383        C  0.28054560  0.22715870  0.48360899     0.04200
C384        C  0.31415731  0.26924322  0.49346416    -0.24600
H385        H  0.32407678  0.35716373  0.53536446     0.09200
H386        H  0.36916495  0.34209404  0.51460771     0.12800
H387        H  0.16102393  0.21862239  0.52237679     0.12800
H388        H  0.15088323  0.17422413  0.49918068     0.12500
H389        H  0.19561498  0.16065660  0.47805569     0.13100
H390        H  0.35977836  0.29448891  0.49187859     0.15000
C391        C  0.30795248  0.37147079  0.94849728    -0.05000
C392        C  0.36250162  0.37870090  0.94933524    -0.04900
C393        C  0.39706815  0.39377859  0.93736538    -0.23100
C394        C  0.37843617  0.40460705  0.92462437     0.19100
C395        C  0.32377782  0.39815981  0.92369221     0.16300
C396        C  0.28807612  0.37974123  0.93557344    -0.18100
C397        C  0.30738256  0.41341347  0.91116405    -0.19900
C398        C  0.34305904  0.93033170  0.89998970    -0.12500
C399        C  0.40156537  0.44721943  0.90123082     0.04200
C400        C  0.41529248  0.42580110  0.91312017    -0.24600
H401        H  0.37816604  0.37252718  0.95922308     0.09200
H402        H  0.43933300  0.39942932  0.93821557     0.12800
H403        H  0.24608989  0.37502574  0.93501233     0.12800
H404        H  0.26123946  0.89737002  0.90990748     0.12500
H405        H  0.33113952  0.94597670  0.89092141     0.13100
H406        H  0.45710618  0.43019442  0.91394831     0.15000
C407        C  0.12219326  0.44045448  0.95142762    -0.05000
C408        C  0.12153482  0.49180263  0.95313219    -0.04900
C409        C  0.11264711  0.51770132  0.94147407    -0.23100
C410        C  0.10306482  0.49178599  0.92811722     0.19100
C411        C  0.10283617  0.43968823  0.92640680     0.16300
C412        C  0.11318274  0.41486724  0.93801810    -0.18100
C413        C  0.09026499  0.41225645  0.91323833    -0.19900
C414        C  0.07472583  0.43473242  0.90200390    -0.12500
C415        C  0.07429422  0.48643112  0.90360299     0.04200
C416        C  0.09096911  0.51558831  0.91659221    -0.24600
H417        H  0.12879102  0.51214576  0.96335059     0.09200
H418        H  0.11207490  0.55734114  0.94297262     0.12800
H419        H  0.11293917  0.37465776  0.93668047     0.12800
H420        H  0.08951071  0.37188239  0.91184521     0.12500
H421        H  0.06013605  0.40993342  0.89240604     0.13100
H422        H  0.59101836  0.55531388  0.91811908     0.15000
C423        C  0.08363569  0.18519396  0.95187531    -0.05000
C424        C  0.12385236  0.17043208  0.94730808    -0.04900
C425        C  0.12682880  0.15794617  0.93314428    -0.23100
C426        C  0.08834268  0.15810588  0.92342352     0.19100
C427        C  0.04585368  0.16996346  0.92805890     0.16300
C428        C  0.04432508  0.18434717  0.94219738    -0.18100
C429        C  0.00496185  0.16608650  0.91851530    -0.19900
C430        C  0.00270789  0.14463130  0.90494666    -0.12500
C431        C  0.04348450  0.13052977  0.90044981     0.04200
C432        C  0.08923975  0.14278901  0.90933538    -0.24600
H433        H  0.15542429  0.17225788  0.95449244     0.09200
H434        H  0.15912121  0.14801472  0.92980388     0.12800
H435        H  0.01350281  0.19619492  0.94561998     0.12800
H436        H  0.97198034  0.17489204  0.92189786     0.12500
H437        H  0.46581997  0.13348003  0.89853376     0.13100
H438        H  0.12061034  0.13165212  0.90590092     0.15000
C439        C  0.34831564  0.42045677  0.73908248    -0.05000
C440        C  0.32716654  0.36382742  0.74385425    -0.04900
C441        C  0.30833601  0.34898914  0.75769980    -0.23100
C442        C  0.31015063  0.39044924  0.76698642     0.19100
C443        C  0.32963102  0.44704262  0.76221318     0.16300
C444        C  0.34843995  0.46162157  0.74829982    -0.18100
C445        C  0.32888103  0.48767824  0.77138017    -0.19900
C446        C  0.30474977  0.47098498  0.78477713    -0.12500
C447        C  0.28398760  0.41439934  0.78941801     0.04200
C448        C  0.28968722  0.37532618  0.78074158    -0.24600
H449        H  0.32728909  0.33149721  0.73704006     0.09200
H450        H  0.29266343  0.30516645  0.76116903     0.12800
H451        H  0.36528331  0.50569601  0.74483873     0.12800
H452        H  0.34325960  0.53119248  0.76785017     0.12500
H453        H  0.29763601  0.50070108  0.79096308     0.13100
H454        H  0.27173223  0.33111505  0.78412734     0.15000
C455        C  0.12288665  0.41561313  0.79234945    -0.05000
C456        C  0.16149576  0.47146387  0.78766061    -0.04900
C457        C  0.15425933  0.49044057  0.77457261    -0.23100
C458        C  0.10915461  0.45295570  0.76585669     0.19100
C459        C  0.06807949  0.39820955  0.77101504     0.16300
C460        C  0.07414052  0.38090307  0.78444584    -0.18100
C461        C  0.02398017  0.35986725  0.76228110    -0.19900
C462        C  0.02120378  0.37482283  0.74842088    -0.12500
C463        C  0.06195358  0.42893919  0.74301986     0.04200
C464        C  0.10553516  0.46824981  0.75193367    -0.24600
H465        H  0.20023148  0.49816083  0.79346311     0.09200
H466        H  0.18613833  0.53261498  0.77085487     0.12800
H467        H  0.04470083  0.33758678  0.78801394     0.12800
H468        H  0.99212713  0.31770516  0.76608839     0.12500
H469        H  0.98626764  0.34416825  0.74200050     0.13100
H470        H  0.13643172  0.51060817  0.74808514     0.15000
C471        C  0.12867993  0.25117098  0.78728454    -0.05000
C472        C  0.16210943  0.22627805  0.78411809    -0.04900
C473        C  0.15609145  0.19806524  0.77129385    -0.23100
C474        C  0.11817836  0.19644568  0.76113849     0.19100
C475        C  0.08433131  0.22134611  0.76420691     0.16300
C476        C  0.08912500  0.24755953  0.77731977    -0.18100
C477        C  0.04743741  0.22111051  0.75396341    -0.19900
C478        C  0.04260957  0.19460163  0.74096341    -0.12500
C479        C  0.07512627  0.16848564  0.73786744     0.04200
C480        C  0.11374556  0.17060903  0.74796143    -0.24600
H481        H  0.19614160  0.23254519  0.79102188     0.09200
H482        H  0.18303423  0.18001772  0.76905544     0.12800
H483        H  0.06489061  0.26861901  0.77940981     0.12800
H484        H  0.02156900  0.24054144  0.75609144     0.12500
H485        H  0.01202638  0.19293173  0.73347115     0.13100
H486        H  0.13829306  0.14974861  0.74584663     0.15000
C487        C  0.07251262  0.47509105  0.86981659    -0.05000
C488        C  0.12927630  0.48888185  0.87122722    -0.04900
C489        C  0.15449883  0.47140769  0.86091299    -0.23100
C490        C  0.12385753  0.44230828  0.84882748     0.19100
C491        C  0.06625460  0.42691102  0.84760155     0.16300
C492        C  0.04054737  0.44137605  0.85835173    -0.18100
C493        C  0.03584563  0.39941734  0.83538985    -0.19900
C494        C  0.06256656  0.38747336  0.82436705    -0.12500
C495        C  0.11964288  0.40219487  0.82553231     0.04200
C496        C  0.15003005  0.42941620  0.83780849    -0.24600
H497        H  0.15465102  0.51509873  0.87993241     0.09200
H498        H  0.19864558  0.48309276  0.86203467     0.12800
H499        H  0.99620929  0.42928347  0.85735729     0.12800
H500        H  0.99158566  0.38745899  0.83434770     0.12500
H501        H  0.03810374  0.36483269  0.81518575     0.13100
H502        H  0.19412583  0.44054691  0.83875888     0.15000
C503        C  0.28702435  0.40974129  0.82283093    -0.05000
C504        C  0.32739888  0.46857551  0.82209225    -0.04900
C505        C  0.36703411  0.49499513  0.83281874    -0.23100
C506        C  0.36602760  0.46309877  0.84455179     0.19100
C507        C  0.32655109  0.40356766  0.84524145     0.16300
C508        C  0.28791180  0.37718188  0.83425486    -0.18100
C509        C  0.32555640  0.37192821  0.85707113    -0.19900
C510        C  0.36422332  0.39893346  0.86802670    -0.12500
C511        C  0.40361248  0.45799412  0.86733897     0.04200
C512        C  0.40359803  0.48982773  0.85565309    -0.24600
H513        H  0.32620290  0.49490376  0.81372169     0.09200
H514        H  0.39716750  0.54081505  0.83218727     0.12800
H515        H  0.25655639  0.33165967  0.83490338     0.12800
H516        H  0.29539383  0.32616201  0.85774693     0.12500
H517        H  0.36463584  0.37347605  0.87675704     0.13100
H518        H  0.43393638  0.53565758  0.85507299     0.15000
C519        C  0.04870831  0.12576791  0.86659151    -0.05000
C520        C  0.03015662  0.16584437  0.86689005    -0.04900
C521        C  0.04215682  0.20347989  0.85558588    -0.23100
C522        C  0.07221603  0.20090156  0.84377466     0.19100
C523        C  0.09149946  0.16111563  0.84345108     0.16300
C524        C  0.08049975  0.12465093  0.85493812    -0.18100
C525        C  0.12192943  0.15880873  0.83170117    -0.19900
C526        C  0.13639871  0.19831498  0.82073200    -0.12500
C527        C  0.11915504  0.23940834  0.82118960     0.04200
C528        C  0.08506831  0.23880802  0.83249756    -0.24600
H529        H  0.50429452  0.16644493  0.87549637     0.09200
H530        H  0.52719758  0.23393250  0.85597779     0.12800
H531        H  0.09554101  0.09421080  0.85465376     0.12800
H532        H  0.13681653  0.12826617  0.83130631     0.12500
H533        H  0.16432915  0.19907724  0.81253245     0.13100
H534        H  0.07205304  0.27083760  0.83298380     0.15000
C535        C  0.35791896  0.23882543  0.23271763    -0.05000
C536        C  0.41755927  0.26917432  0.23333385    -0.04900
C537        C  0.44563667  0.29724623  0.24563480    -0.23100
C538        C  0.41454025  0.29363254  0.25778029     0.19100
C539        C  0.35460450  0.26398350  0.25736860     0.16300
C540        C  0.32689912  0.23870802  0.24471777    -0.18100
C541        C  0.32356086  0.25856718  0.26972800    -0.19900
C542        C  0.35191275  0.28438008  0.28225519    -0.12500
C543        C  0.41165351  0.31619029  0.28254938     0.04200
C544        C  0.44253600  0.31925781  0.27031640    -0.24600
H545        H  0.44289214  0.26763129  0.22481843     0.09200
H546        H  0.49173200  0.31937197  0.24585023     0.12800
H547        H  0.28084591  0.21492607  0.24454866     0.12800
H548        H  0.27741533  0.23524137  0.26964326     0.12500
H549        H  0.32720133  0.28223785  0.29146167     0.13100
H550        H  0.48870417  0.34371291  0.27039586     0.15000
C551        C  0.39375403  0.04216638  0.28159641    -0.05000
C552        C  0.39762873  0.09617331  0.28193127    -0.04900
C553        C  0.38713348  0.11845089  0.26990541    -0.23100
C554        C  0.37170511  0.08672733  0.25738150     0.19100
C555        C  0.36624749  0.03179251  0.25684728     0.16300
C556        C  0.37790009  0.00994532  0.26897076    -0.18100
C557        C  0.34883905  0.99996160  0.24423140    -0.19900
C558        C  0.33395707  0.02137242  0.23254908    -0.12500
C559        C  0.33822928  0.07556602  0.23326569     0.04200
C560        C  0.36006593  0.10880024  0.24550288    -0.24600
H561        H  0.91038053  0.12206235  0.29140789     0.09200
H562        H  0.89090958  0.16054571  0.27041070     0.12800
H563        H  0.37533586  0.96842683  0.26851786     0.12800
H564        H  0.34466570  0.95778475  0.24359078     0.12500
H565        H  0.31716365  0.99486245  0.22324449     0.13100
H566        H  0.36584479  0.15165035  0.24608623     0.15000
C567        C  0.17840865  0.08848220  0.22613499    -0.05000
C568        C  0.15187845  0.03103945  0.23062750    -0.04900
C569        C  0.12722325  0.01590392  0.24403661    -0.23100
C570        C  0.12987418  0.05845024  0.25312531     0.19100
C571        C  0.15041224  0.11481842  0.24800612     0.16300
C572        C  0.17251364  0.12877310  0.23430558    -0.18100
C573        C  0.15297536  0.15745015  0.25704302    -0.19900
C574        C  0.13711078  0.14483376  0.27116779    -0.12500
C575        C  0.11962950  0.08986008  0.27649103     0.04200
C576        C  0.11482793  0.04641502  0.26736920    -0.24600
H577        H  0.15683556  0.99962380  0.22456058     0.09200
H578        H  0.11064688  0.97220309  0.24770335     0.12800
H579        H  0.19335440  0.17323231  0.23086946     0.12800
H580        H  0.16808176  0.20071595  0.25324571     0.12500
H581        H  0.13821771  0.17784645  0.27794667     0.13100
H582        H  0.09862577  0.00314825  0.27132843     0.15000
C583        C  0.25238778  0.49023544  0.40048609    -0.05000
C584        C  0.31082713  0.52982748  0.40136389    -0.04900
C585        C  0.32480487  0.05845617  0.41169705    -0.23100
C586        C  0.29158982  0.04819426  0.42383565     0.19100
C587        C  0.23220598  0.01041810  0.42337997     0.16300
C588        C  0.21745366  0.47931388  0.41248490    -0.18100
C589        C  0.19959034  0.00198163  0.43566778    -0.19900
C590        C  0.22556990  0.03256222  0.44805586    -0.12500
C591        C  0.28458831  0.07093061  0.44837541     0.04200
C592        C  0.31715361  0.07639090  0.43634179    -0.24600
H593        H  0.33847521  0.53821882  0.39233062     0.09200
H594        H  0.37031666  0.08810940  0.41188533     0.12800
H595        H  0.17246893  0.44776368  0.41198145     0.12800
H596        H  0.15389597  0.97335401  0.43555406     0.12500
H597        H  0.19926663  0.02898549  0.45704200     0.13100
H598        H  0.36249527  0.10605508  0.43640033     0.15000
C599        C  0.02950609  0.24953862  0.40362077    -0.05000
C600        C  0.01283020  0.19407125  0.40856101    -0.04900
C601        C  0.99293961  0.17812643  0.42226472    -0.23100
C602        C  0.48902810  0.21727815  0.43126530     0.19100
C603        C  0.50550291  0.27324341  0.42647989     0.16300
C604        C  0.52575430  0.28912264  0.41266640    -0.18100
C605        C  0.49979432  0.31158242  0.43548951    -0.19900
C606        C  0.47259691  0.29242457  0.44852059    -0.12500
C607        C  0.45306462  0.23570661  0.45283843     0.04200
C608        C  0.46515706  0.19984760  0.44465465    -0.24600
H609        H  0.01627401  0.16317068  0.40188886     0.09200
H610        H  0.98007782  0.13499799  0.42577235     0.12800
H611        H  0.53972286  0.33245307  0.40909174     0.12800
H612        H  0.51243407  0.35474788  0.43205465     0.12500
H613        H  0.46189245  0.31992085  0.45458653     0.13100
H614        H  0.44941271  0.15589464  0.44799665     0.15000
C615        C  0.24312628  0.24991203  0.40022776    -0.05000
C616        C  0.22024804  0.19077182  0.40251821    -0.04900
C617        C  0.22185163  0.17048645  0.41584253    -0.23100
C618        C  0.24655634  0.20914073  0.42702888     0.19100
C619        C  0.27068771  0.26882628  0.42483272     0.16300
C620        C  0.26869819  0.28883960  0.41143139    -0.18100
C621        C  0.29763846  0.30737829  0.43600539    -0.19900
C622        C  0.30548975  0.28707837  0.44882320    -0.12500
C623        C  0.28419043  0.22810232  0.45065083     0.04200
C624        C  0.25087312  0.18920399  0.44015963    -0.24600
H625        H  0.19966710  0.16007053  0.39408805     0.09200
H626        H  0.20401283  0.12465725  0.41738926     0.12800
H627        H  0.28549178  0.33448454  0.40984686     0.12800
H628        H  0.31612149  0.35326214  0.43450054     0.12500
H629        H  0.33222162  0.31752002  0.45677321     0.13100
H630        H  0.23472580  0.14360013  0.44162228     0.15000
Zn631      Zn  0.11968690  0.85961233  0.36981672     1.49700
Zn632      Zn  0.12799207  0.74516621  0.36923120     1.49400
Zn633      Zn  0.16477647  0.82417375  0.34124351     1.49100
Zn634      Zn  0.23941630  0.86595168  0.37009712     1.49500
O635        O  0.16276300  0.82412163  0.36204005    -1.83900
O636        O  0.05654984  0.80696463  0.38296916    -0.74500
O637        O  0.09368569  0.68428092  0.35433642    -0.74300
O638        O  0.12267357  0.86991230  0.33432127    -0.73800
O639        O  0.07056778  0.73270898  0.38400498    -0.74500
O640        O  0.09114734  0.88974064  0.35417301    -0.74100
O641        O  0.12073731  0.73538794  0.33448760    -0.74700
O642        O  0.30099214  0.89099848  0.35546667    -0.74100
O643        O  0.18083674  0.73059338  0.38063184    -0.74900
O644        O  0.25332572  0.86722009  0.33520557    -0.74200
O645        O  0.24812727  0.81976351  0.38543451    -0.74700
O646        O  0.25319153  0.93524974  0.38089006    -0.74600
O647        O  0.16702924  0.92363567  0.38359509    -0.74400
C648        C  0.04766953  0.76058344  0.38874009     0.77400
C649        C  0.09548086  0.68656492  0.34098995     0.77900
C650        C  0.09596969  0.89190097  0.34079592     0.76800
C651        C  0.30056433  0.89016510  0.34209869     0.77200
C652        C  0.22164793  0.76633869  0.38824456     0.78300
C653        C  0.21939544  0.94856442  0.38683464     0.77400
Zn654      Zn  0.46136489  0.53000194  0.31936158     1.49700
Zn655      Zn  0.45657992  0.90956448  0.32087349     1.49400
Zn656      Zn  0.99213945  0.99478005  0.29914071     1.49100
Zn657      Zn  0.08183283  0.53163898  0.31991626     1.49500
O658        O  0.99656855  0.99182331  0.31859179    -1.83900
O659        O  0.38254587  0.97383548  0.33304402    -0.74500
O660        O  0.43486937  0.87105784  0.30119844    -0.74300
O661        O  0.43177041  0.47961871  0.28773161    -0.73800
O662        O  0.38047890  0.88936936  0.33124561    -0.74500
O663        O  0.45091643  0.55647213  0.30029099    -0.74100
O664        O  0.50855051  0.93932544  0.28982061    -0.74700
O665        O  0.12932748  0.55909814  0.30149284    -0.74100
O666        O  0.01457167  0.89087894  0.33066870    -0.74900
O667        O  0.06086300  0.52813831  0.28567407    -0.74200
O668        O  0.09813833  0.97420036  0.32986247    -0.74700
O669        O  0.09812598  0.60670174  0.33043858    -0.74600
O670        O  0.01508179  0.60524569  0.33036784    -0.74400
C671        C  0.35709296  0.91900350  0.33483144     0.77400
C672        C  0.46470820  0.88991315  0.28997075     0.77900
C673        C  0.43721264  0.52917971  0.28865430     0.76800
C674        C  0.11292748  0.55547757  0.28878051     0.77200
C675        C  0.06851604  0.92023578  0.33303887     0.78300
C676        C  0.06832737  0.63041360  0.33328529     0.77400
C677        C  0.17487777  0.84782352  0.82014724     0.45700
H678        H  0.17439948  0.84388022  0.83179205    -0.03300
C679        C  0.17506885  0.85644166  0.79312484     0.45800
H680        H  0.17549379  0.86062285  0.78147649    -0.03300
C681        C  0.14635614  0.88097194  0.81506732    -0.17000
C682        C  0.23472841  0.87878033  0.81375011    -0.16800
C683        C  0.14402056  0.78975474  0.81256027    -0.17100
C684        C  0.14617511  0.88516121  0.80074967    -0.17100
C685        C  0.23462407  0.88350875  0.79939648    -0.16700
C686        C  0.14455869  0.79415212  0.79819389    -0.17000
C687        C  0.50635185  0.01674050  0.87135420     0.45700
H688        H  0.50689920  0.01419421  0.85969756    -0.03300
C689        C  0.50364136  0.02176174  0.89827671     0.45800
H690        H  0.50083722  0.02466248  0.90986172    -0.03300
C691        C  0.03196356  0.58445847  0.87727311    -0.17000
C692        C  0.44671191  0.97901813  0.87753099    -0.16800
C693        C  0.04349863  0.99639401  0.87856522    -0.17100
C694        C  0.02880742  0.58587426  0.89153887    -0.17100
C695        C  0.44558560  0.97967631  0.89190693    -0.16700
C696        C  0.04342541  0.00046006  0.89302230    -0.17000
C697        C  0.17505062  0.84471596  0.55958862     0.45700
H698        H  0.17597862  0.84765271  0.57128007    -0.03300
C699        C  0.17351737  0.83776858  0.53257672     0.45800
H700        H  0.17304302  0.83484653  0.52093843    -0.03300
C701        C  0.20038486  0.90308166  0.55238004    -0.17000
C702        C  0.20796787  0.81690180  0.55386271    -0.16800
C703        C  0.11529465  0.80951762  0.55370206    -0.17100
C704        C  0.20023284  0.89999620  0.53795307    -0.17100
C705        C  0.20762367  0.81357377  0.53952048    -0.16700
C706        C  0.11385941  0.80522974  0.53934959    -0.17000
C707        C  0.34263214  0.67773820  0.45487829     0.45700
H708        H  0.34513915  0.68054346  0.44320063    -0.03300
C709        C  0.33759723  0.67342443  0.48191805     0.45800
H710        H  0.33502391  0.67118793  0.49357686    -0.03300
C711        C  0.31433297  0.61614337  0.46053250    -0.17000
C712        C  0.40098391  0.70984303  0.46178235    -0.16800
C713        C  0.30824556  0.70319321  0.46119755    -0.17100
C714        C  0.31090710  0.61375122  0.47494455    -0.17100
C715        C  0.39871145  0.70715525  0.47617276    -0.16700
C716        C  0.30656380  0.70197733  0.47555557    -0.17000
Zn717      Zn  0.25723315  0.62473151  0.64404709     1.49700
Zn718      Zn  0.37184293  0.74876015  0.64416297     1.49400
Zn719      Zn  0.33542363  0.66852505  0.67219563     1.49100
Zn720      Zn  0.37995028  0.63412295  0.64401620     1.49500
O721        O  0.33578402  0.66891475  0.65154783    -1.83900
O722        O  0.24203114  0.67383468  0.63120668    -0.74500
O723        O  0.40325861  0.81042874  0.65888347    -0.74300
O724        O  0.24598382  0.62455214  0.67878593    -0.73800
O725        O  0.32072056  0.75943108  0.63100950    -0.74500
O726        O  0.19493760  0.59256069  0.65914825    -0.74100
O727        O  0.38215411  0.75851025  0.67853734    -0.74700
O728        O  0.41202746  0.60452645  0.65870850    -0.74100
O729        O  0.43583415  0.76611937  0.63121893    -0.74900
O730        O  0.37898163  0.62284478  0.67842201    -0.74200
O731        O  0.44093150  0.68653073  0.63047581    -0.74700
O732        O  0.33369769  0.56972354  0.63108265    -0.74600
O733        O  0.24952064  0.56391979  0.63015940    -0.74400
C734        C  0.27143525  0.72448802  0.62633901     0.77400
C735        C  0.40540805  0.80784595  0.67216776     0.77900
C736        C  0.19711637  0.59736972  0.67251142     0.76800
C737        C  0.40663447  0.60157423  0.67201842     0.77200
C738        C  0.45629740  0.73679772  0.62606018     0.78300
C739        C  0.28493317  0.54967445  0.62562628     0.77400
Zn740      Zn  0.00267374  0.50357051  0.68014623     1.49700
Zn741      Zn  0.07988577  0.54567872  0.70915054     1.49400
Zn742      Zn  0.46057528  0.54188628  0.70813476     1.49100
Zn743      Zn  0.46515350  0.92372447  0.70796268     1.49500
O744        O  0.00207422  0.50429233  0.70080376    -1.83900
O745        O  0.09272224  0.54715081  0.67423807    -0.74500
O746        O  0.09235828  0.61271490  0.72138938    -0.74300
O747        O  0.42858991  0.57094491  0.69336712    -0.73800
O748        O  0.14307817  0.57280173  0.69413235    -0.74500
O749        O  0.45981360  0.55013080  0.67368884    -0.74100
O750        O  0.00837997  0.60730922  0.72082419    -0.74700
O751        O  0.40014251  0.90747697  0.72036976    -0.74100
O752        O  0.08703747  0.99689387  0.72488982    -0.74900
O753        O  0.40247106  0.99073135  0.72201833    -0.74200
O754        O  0.01045443  0.91082035  0.72211419    -0.74700
O755        O  0.43576642  0.86132840  0.69346411    -0.74600
O756        O  0.46002223  0.91309205  0.67379190    -0.74400
C757        C  0.14130056  0.57094117  0.68069780     0.77400
C758        C  0.05812667  0.62865762  0.72578523     0.77900
C759        C  0.43312900  0.57262504  0.68004275     0.76800
C760        C  0.38424896  0.93952887  0.72620213     0.77200
C761        C  0.05415019  0.94554158  0.72906029     0.78300
C762        C  0.43548919  0.86377445  0.68015978     0.77400
C763        C  0.35999270  0.67563890  0.22426532     0.45700
H764        H  0.36320589  0.67748415  0.23588647    -0.03300
C765        C  0.35477349  0.67098954  0.19723978     0.45800
H766        H  0.35420898  0.66982055  0.18556524    -0.03300
C767        C  0.29852849  0.64812273  0.21877418    -0.17000
C768        C  0.39266606  0.73479674  0.21741563    -0.16800
C769        C  0.38501864  0.64096623  0.21780437    -0.17100
C770        C  0.29570476  0.64476567  0.20425040    -0.17100
C771        C  0.38910337  0.73268476  0.20304848    -0.16700
C772        C  0.38203472  0.63833920  0.20349857    -0.17000
C773        C  0.00222637  0.47822422  0.14984986     0.45700
H774        H  0.50033670  0.48072487  0.16149484    -0.03300
C775        C  0.00418246  0.47057306  0.12281220     0.45800
H776        H  0.00487570  0.46719011  0.11118615    -0.03300
C777        C  0.46353148  0.95330870  0.14068760    -0.17000
C778        C  0.47024464  0.50356072  0.14220085    -0.16800
C779        C  0.06284371  0.51006984  0.14365679    -0.17100
C780        C  0.45641915  0.95114519  0.12646257    -0.17100
C781        C  0.47034518  0.49881457  0.12782768    -0.16700
C782        C  0.06369917  0.50633094  0.12922100    -0.17000
Zn783      Zn  0.15711608  0.81960101  0.96953952     1.49700
Zn784      Zn  0.13296120  0.75079491  0.99430110     1.49400
Zn785      Zn  0.25192598  0.87004108  0.99132726     1.49100
Zn786      Zn  0.13386186  0.87456006  0.99304872     1.49500
O787        O  0.17124667  0.83121338  0.98882032    -1.83900
O788        O  0.08037108  0.75372034  0.96657218    -0.74500
O789        O  0.18925513  0.73481821  0.00498421    -0.74300
O790        O  0.28818518  0.88060559  0.97184687    -0.73800
O791        O  0.11084560  0.70109167  0.97633517    -0.74500
O792        O  0.21623468  0.81150122  0.95973451    -0.74100
O793        O  0.27221551  0.81680102  0.00244169    -0.74700
O794        O  0.19204629  0.94705729  0.00323672    -0.74100
O795        O  0.06078457  0.73602841  0.00490791    -0.74900
O796        O  0.27495824  0.94854306  0.00092029    -0.74200
O797        O  0.06099717  0.81962596  0.00398219    -0.74700
O798        O  0.11272086  0.90425405  0.97533250    -0.74600
O799        O  0.15915682  0.88247573  0.95969801    -0.74400
C800        C  0.08690930  0.71065630  0.96607821     0.75900
C801        C  0.24326814  0.76457562  0.00672654     0.77900
C802        C  0.26821563  0.85023881  0.96071637     0.76800
C803        C  0.24607881  0.97217370  0.00484806     0.77200
C804        C  0.03741188  0.76640100  0.00748651     0.78300
C805        C  0.13095143  0.90642250  0.96281636     0.77400
Zn806      Zn  0.34817259  0.67753211  0.05187972     1.49700
Zn807      Zn  0.38251453  0.62781267  0.02777258     1.49400
Zn808      Zn  0.26464465  0.63027491  0.02795306     1.49100
Zn809      Zn  0.38264523  0.75193563  0.02697383     1.49500
O810        O  0.34435515  0.67084352  0.03208049    -1.83900
O811        O  0.34947233  0.61471546  0.06137470    -0.74500
O812        O  0.32871316  0.55713189  0.01582019    -0.74300
O813        O  0.22330618  0.60510537  0.04674860    -0.73800
O814        O  0.39833740  0.59491058  0.04585425    -0.74500
O815        O  0.28156189  0.67846376  0.06012577    -0.74100
O816        O  0.24641582  0.55697175  0.01689527    -0.74700
O817        O  0.32686802  0.76758886  0.01578552    -0.74100
O818        O  0.45755874  0.68543852  0.01798569    -0.74900
O819        O  0.24398906  0.68509375  0.01780787    -0.74200
O820        O  0.45643429  0.76829888  0.01675319    -0.74700
O821        O  0.40464939  0.80308067  0.04480242    -0.74600
O822        O  0.41923566  0.74441864  0.05780670    -0.74400
C823        C  0.37832895  0.59127225  0.05826511     0.77400
C824        C  0.27543900  0.53342594  0.01317259     0.77900
C825        C  0.23557152  0.63101815  0.05860149     0.76800
C826        C  0.27297878  0.73768484  0.01379590     0.77200
C827        C  0.48082190  0.73864237  0.01448701     0.78300
C828        C  0.42310019  0.79257639  0.05601778     0.77400
C829        C  0.43526852  0.90073804  0.11722253    -0.05000
C830        C  0.37990977  0.87682403  0.11197396    -0.04900
C831        C  0.36700680  0.85234002  0.09857025    -0.23100
C832        C  0.40966760  0.85214473  0.09023471     0.19100
C833        C  0.46434182  0.87203051  0.09592909     0.16300
C834        C  0.47611024  0.89443531  0.10960451    -0.18100
C835        C  0.50704330  0.87176211  0.08761095    -0.19900
C836        C  0.49518369  0.85053510  0.07387462    -0.12500
C837        C  0.44108401  0.83091327  0.06816726     0.04200
C838        C  0.39862172  0.83231452  0.07633146    -0.24600
H839        H  0.34804037  0.88157013  0.11772402     0.09200
H840        H  0.32463883  0.83654523  0.09444496     0.12800
H841        H  0.51915387  0.91372333  0.11360710     0.12800
H842        H  0.54919261  0.88696979  0.09180651     0.12500
H843        H  0.52746646  0.84722650  0.06787432     0.13100
H844        H  0.35605463  0.81463900  0.07213404     0.15000
C845        C  0.44404776  0.51942516  0.11741092    -0.05000
C846        C  0.45048831  0.57442742  0.11855792    -0.04900
C847        C  0.43669303  0.59816995  0.10726122    -0.23100
C848        C  0.41742659  0.56775987  0.09455237     0.19100
C849        C  0.40899772  0.51170467  0.09341592     0.16300
C850        C  0.42095079  0.48742918  0.10497419    -0.18100
C851        C  0.39101843  0.48186331  0.08055837    -0.19900
C852        C  0.38267295  0.50802295  0.06881301    -0.12500
C853        C  0.39093448  0.56365553  0.06991434     0.04200
C854        C  0.40763564  0.59295643  0.08286431    -0.24600
H855        H  0.46920204  0.60042658  0.12783751     0.09200
H856        H  0.44340402  0.64132020  0.10825845     0.12800
H857        H  0.35757413  0.96826296  0.11139079     0.12800
H858        H  0.32418903  0.94409195  0.08727756     0.12500
H859        H  0.36862110  0.48447775  0.05900098     0.13100
H860        H  0.41379945  0.63596796  0.08376038     0.15000
C861        C  0.11325749  0.53745143  0.11959721    -0.05000
C862        C  0.14923938  0.59736836  0.12051423    -0.04900
C863        C  0.18300277  0.62846455  0.10893602    -0.23100
C864        C  0.17940223  0.60012692  0.09617471     0.19100
C865        C  0.14527489  0.53961244  0.09553806     0.16300
C866        C  0.11466814  0.50884660  0.10737281    -0.18100
C867        C  0.13929692  0.51065338  0.08285001    -0.19900
C868        C  0.16613630  0.54135726  0.07073462    -0.12500
C869        C  0.20070832  0.60150645  0.07110691     0.04200
C870        C  0.20780082  0.63085669  0.08394983    -0.24600
H871        H  0.14826319  0.62049951  0.12976742     0.09200
H872        H  0.20913617  0.67483726  0.10968874     0.12800
H873        H  0.03893997  0.99753667  0.09914293     0.12800
H874        H  0.05848443  0.99254949  0.07479466     0.12500
H875        H  0.16127229  0.51753865  0.06112413     0.13100
H876        H  0.23508720  0.67718539  0.08441062     0.15000
C877        C  0.40780041  0.61391763  0.19422442    -0.05000
C878        C  0.46640777  0.64578604  0.19157000    -0.04900
C879        C  0.48956389  0.63275498  0.17996197    -0.23100
C880        C  0.45401673  0.58812878  0.17082308     0.19100
C881        C  0.39510192  0.55444565  0.17374637     0.16300
C882        C  0.37258845  0.56706380  0.18561749    -0.18100
C883        C  0.35988312  0.50924891  0.16465931    -0.19900
C884        C  0.38354600  0.49556352  0.15321813    -0.12500
C885        C  0.44218885  0.52802882  0.15059471     0.04200
C886        C  0.47667169  0.57564100  0.15901484    -0.24600
H887        H  0.49367338  0.68274822  0.19803571     0.09200
H888        H  0.53486957  0.65843500  0.17791858     0.12800
H889        H  0.32754807  0.54164749  0.18795322     0.12800
H890        H  0.31457113  0.48321465  0.16671445     0.12500
H891        H  0.35689436  0.45780422  0.14695293     0.13100
H892        H  0.02185977  0.60093399  0.15677216     0.15000
C893        C  0.41152407  0.78212707  0.19337866    -0.05000
C894        C  0.46860730  0.82619103  0.19374100    -0.04900
C895        C  0.49078463  0.86759277  0.18311190    -0.23100
C896        C  0.45624603  0.86486442  0.17191416     0.19100
C897        C  0.39844384  0.82104195  0.17161714     0.16300
C898        C  0.37643141  0.78048821  0.18242515    -0.18100
C899        C  0.36373001  0.81834358  0.16047999    -0.19900
C900        C  0.38583303  0.85964575  0.14986325    -0.12500
C901        C  0.44301014  0.90359225  0.15016106     0.04200
C902        C  0.47823547  0.90556776  0.16110416    -0.24600
H903        H  0.49674626  0.82726127  0.20184013     0.09200
H904        H  0.53519123  0.90100229  0.18348373     0.12800
H905        H  0.33211419  0.74655360  0.18213882     0.12800
H906        H  0.31922161  0.78510879  0.16015996     0.12500
H907        H  0.35754420  0.85886135  0.14182430     0.13100
H908        H  0.52233119  0.93997817  0.16141411     0.15000
C909        C  0.24421479  0.61990596  0.19519208    -0.05000
C910        C  0.19989825  0.63153952  0.19745297    -0.04900
C911        C  0.15583014  0.61339689  0.18763482    -0.23100
C912        C  0.15608350  0.58428811  0.17531167     0.19100
C913        C  0.20057833  0.57273749  0.17297120     0.16300
C914        C  0.24357974  0.58993040  0.18294947    -0.18100
C915        C  0.20175925  0.54447287  0.16063268    -0.19900
C916        C  0.15851958  0.52690595  0.15071867    -0.12500
C917        C  0.11324339  0.53699605  0.15301123     0.04200
C918        C  0.11254417  0.56600699  0.16534572    -0.24600
H919        H  0.20018739  0.65598093  0.20655583     0.09200
H920        H  0.12210848  0.62297752  0.18955375     0.12800
H921        H  0.27738033  0.58109767  0.18092015     0.12800
H922        H  0.23574369  0.53524617  0.15874222     0.12500
H923        H  0.15920371  0.50320411  0.14155458     0.13100
H924        H  0.07752176  0.57330431  0.16740443     0.15000
C925        C  0.22267507  0.95354772  0.56162613    -0.05000
C926        C  0.18482686  0.97125132  0.56637671    -0.04900
C927        C  0.18965121  0.99361499  0.57991348    -0.23100
C928        C  0.23096772  0.99623441  0.58908991     0.19100
C929        C  0.27054890  0.98062591  0.58417534     0.16300
C930        C  0.26766515  0.96196410  0.57029900    -0.18100
C931        C  0.31026291  0.98061484  0.59343711    -0.19900
C932        C  0.31131704  0.49770933  0.60805346    -0.12500
C933        C  0.27340495  0.51593930  0.61251705     0.04200
C934        C  0.23230943  0.51263031  0.60307891    -0.24600
H935        H  0.14763820  0.96176775  0.56027698     0.09200
H936        H  0.15859473  0.00487844  0.58352548     0.12800
H937        H  0.29545697  0.94602169  0.56689498     0.12800
H938        H  0.34021291  0.96773298  0.58988459     0.12500
H939        H  0.34389717  0.50047953  0.61503171     0.13100
H940        H  0.20339314  0.52732368  0.60627623     0.15000
C941        C  0.06770394  0.78420578  0.56373885    -0.05000
C942        C  0.03906862  0.72487916  0.56627769    -0.04900
C943        C  0.01207125  0.70340031  0.57923985    -0.23100
C944        C  0.01469803  0.74132155  0.58981943     0.19100
C945        C  0.04177773  0.80090570  0.58700796     0.16300
C946        C  0.06607950  0.82143493  0.57382968    -0.18100
C947        C  0.54628405  0.83934371  0.59758941    -0.19900
C948        C  0.52198932  0.81869370  0.61076617    -0.12500
C949        C  0.49316718  0.75936607  0.61356489     0.04200
C950        C  0.99080368  0.72095747  0.60313615    -0.24600
H951        H  0.04165684  0.69595907  0.55873480     0.09200
H952        H  0.99164817  0.65756373  0.58124157     0.12800
H953        H  0.08895332  0.86733782  0.57189862     0.12800
H954        H  0.56788638  0.88526181  0.59561194     0.12500
H955        H  0.52395822  0.84890535  0.61862898     0.13100
H956        H  0.96786113  0.67498132  0.60513732     0.15000
C957        C  0.25040553  0.73980980  0.61380658    -0.05000
C958        C  0.19224988  0.70861908  0.61052658    -0.04900
C959        C  0.17341672  0.71343905  0.59728874    -0.23100
C960        C  0.21255272  0.74916692  0.58707118     0.19100
C961        C  0.27101497  0.78195574  0.59032534     0.16300
C962        C  0.28953185  0.77751781  0.60374044    -0.18100
C963        C  0.30977128  0.81856626  0.58009109    -0.19900
C964        C  0.29017704  0.82521068  0.56706278    -0.12500
C965        C  0.23196909  0.79406806  0.56401038     0.04200
C966        C  0.19380292  0.75434306  0.57382642    -0.24600
H967        H  0.16151228  0.67894555  0.61806599     0.09200
H968        H  0.12836337  0.68858153  0.59497048     0.12800
H969        H  0.33462307  0.80106236  0.60607392     0.12800
H970        H  0.35474349  0.84411905  0.58241724     0.12500
H971        H  0.31974342  0.85778879  0.55985587     0.13100
H972        H  0.14855110  0.73153256  0.57161505     0.15000
C973        C  0.22113576  0.94805299  0.52777923    -0.05000
C974        C  0.20702288  0.99125885  0.52928546    -0.04900
C975        C  0.21687125  0.02938465  0.51829740    -0.23100
C976        C  0.24036183  0.02433502  0.50556736     0.19100
C977        C  0.26499154  0.48337946  0.50567615     0.16300
C978        C  0.24723775  0.94480795  0.51520825    -0.18100
C979        C  0.29447067  0.48288009  0.49351214    -0.19900
C980        C  0.30559932  0.52234738  0.48268802    -0.12500
C981        C  0.28681619  0.56210478  0.48390189     0.04200
C982        C  0.25450624  0.56026445  0.49567811    -0.24600
H983        H  0.18556461  0.99393176  0.53857078     0.09200
H984        H  0.20496515  0.06195517  0.51964136     0.12800
H985        H  0.25915315  0.91216416  0.51398045     0.12800
H986        H  0.31028270  0.45319573  0.49256312     0.12500
H987        H  0.33157110  0.52404733  0.47380165     0.13100
H988        H  0.23981556  0.59085793  0.49662188     0.15000
C989        C  0.06262098  0.77940600  0.53047304    -0.05000
C990        C  0.01748453  0.78927788  0.53329935    -0.04900
C991        C  0.97659740  0.77760514  0.52304593    -0.23100
C992        C  0.98137471  0.75738545  0.50976504     0.19100
C993        C  0.52536217  0.74527910  0.50707458     0.16300
C994        C  0.06455753  0.75477239  0.51758389    -0.18100
C995        C  0.53053982  0.72556866  0.49377483    -0.19900
C996        C  0.49149276  0.71672278  0.48325395    -0.12500
C997        C  0.44714245  0.72790988  0.48589439     0.04200
C998        C  0.44305063  0.74925209  0.49911113    -0.24600
H999        H  0.01570091  0.80941234  0.54302422     0.09200
H1000       H  0.94277326  0.78673303  0.52527491     0.12800
H1001       H  0.09863329  0.74614026  0.51537772     0.12800
H1002       H  0.56422839  0.71616295  0.49158685     0.12500
H1003       H  0.49437466  0.69841030  0.47335687     0.13100
H1004       H  0.40905657  0.75810932  0.50125561     0.15000
C1005       C  0.23762046  0.79277455  0.53058728    -0.05000
C1006       C  0.29502037  0.83053101  0.52734433    -0.04900
C1007       C  0.31931690  0.82209347  0.51523311    -0.23100
C1008       C  0.28599936  0.77639000  0.50609901     0.19100
C1009       C  0.22846980  0.73728734  0.50952782     0.16300
C1010       C  0.20499045  0.74528723  0.52189005    -0.18100
C1011       C  0.19511694  0.69163516  0.50037394    -0.19900
C1012       C  0.21926205  0.68360519  0.48816935    -0.12500
C1013       C  0.27659915  0.72145890  0.48491746     0.04200
C1014       C  0.30944592  0.76850865  0.49371776    -0.24600
H1015       H  0.31981824  0.86884530  0.53361236     0.09200
H1016       H  0.36343664  0.85247675  0.51273583     0.12800
H1017       H  0.16032761  0.71684892  0.52430237     0.12800
H1018       H  0.15102680  0.66126940  0.50286977     0.12500
H1019       H  0.19429696  0.64576208  0.48174712     0.13100
H1020       H  0.35414403  0.79685967  0.49132342     0.15000
C1021       C  0.30428947  0.86290992  0.94824621    -0.05000
C1022       C  0.35947770  0.87196103  0.94932172    -0.04900
C1023       C  0.39464785  0.88783427  0.93747600    -0.23100
C1024       C  0.37581748  0.89763916  0.92464930     0.19100
C1025       C  0.32039274  0.88915547  0.92350211     0.16300
C1026       C  0.28423917  0.86994450  0.93524700    -0.18100
C1027       C  0.30359245  0.90344925  0.91091759    -0.19900
C1028       C  0.34667835  0.43933338  0.90011136    -0.12500
C1029       C  0.39861091  0.94033343  0.90133485     0.04200
C1030       C  0.41307319  0.91996026  0.91327740    -0.24600
H1031       H  0.37525398  0.86690506  0.95931766     0.09200
H1032       H  0.43749087  0.89509551  0.93849770     0.12800
H1033       H  0.24179344  0.86403558  0.93453740     0.12800
H1034       H  0.26555370  0.40881877  0.91029171     0.12500
H1035       H  0.33525226  0.45580472  0.89111401     0.13100
H1036       H  0.45548045  0.92593096  0.91424278     0.15000
C1037       C  0.11774313  0.93342327  0.95119646    -0.05000
C1038       C  0.11299785  0.98239908  0.95318741    -0.04900
C1039       C  0.10334209  0.00827159  0.94165899    -0.23100
C1040       C  0.09683544  0.98439632  0.92813344     0.19100
C1041       C  0.09969841  0.93408243  0.92612904     0.16300
C1042       C  0.11120150  0.90954682  0.93762310    -0.18100
C1043       C  0.08933519  0.90826634  0.91276751    -0.19900
C1044       C  0.07366889  0.93097500  0.90159547    -0.12500
C1045       C  0.07094112  0.98135618  0.90347664     0.04200
C1046       C  0.08508948  0.00874205  0.91670051    -0.24600
H1047       H  0.11788012  0.00117479  0.96354699     0.09200
H1048       H  0.09997424  0.04625424  0.94335583     0.12800
H1049       H  0.11381855  0.87100521  0.93606416     0.12800
H1050       H  0.09062181  0.86907108  0.91114579     0.12500
H1051       H  0.06098238  0.90735875  0.89179781     0.13100
H1052       H  0.58366852  0.04756490  0.91848798     0.15000
C1053       C  0.07998327  0.68276751  0.95235239    -0.05000
C1054       C  0.12233147  0.67133290  0.94766031    -0.04900
C1055       C  0.12775727  0.66262771  0.93339304    -0.23100
C1056       C  0.08932832  0.66272701  0.92368486     0.19100
C1057       C  0.04489169  0.67156806  0.92836749     0.16300
C1058       C  0.04099471  0.68244464  0.94265156    -0.18100
C1059       C  0.00441933  0.66793425  0.91871589    -0.19900
C1060       C  0.00409153  0.64852091  0.90502159    -0.12500
C1061       C  0.04613977  0.63609149  0.90065956     0.04200
C1062       C  0.09199053  0.64957023  0.90954526    -0.24600
H1063       H  0.15382743  0.67317834  0.95487706     0.09200
H1064       H  0.16168692  0.65532746  0.92997528     0.12800
H1065       H  0.00871685  0.69206511  0.94618167     0.12800
H1066       H  0.97022038  0.67487786  0.92208717     0.12500
H1067       H  0.46760066  0.63705781  0.89843083     0.13100
H1068       H  0.12458609  0.64021455  0.90608325     0.15000
C1069       C  0.35072836  0.91921526  0.73933972    -0.05000
C1070       C  0.32766889  0.86158373  0.74356685    -0.04900
C1071       C  0.30714508  0.84471014  0.75724210    -0.23100
C1072       C  0.30948412  0.88520713  0.76694490     0.19100
C1073       C  0.33177184  0.94301576  0.76276378     0.16300
C1074       C  0.35187533  0.95953061  0.74899126    -0.18100
C1075       C  0.33250744  0.98310714  0.77235924    -0.19900
C1076       C  0.30711305  0.96509737  0.78557982    -0.12500
C1077       C  0.28312871  0.90741877  0.78962527     0.04200
C1078       C  0.28698633  0.86827836  0.78051553    -0.24600
H1079       H  0.32721163  0.82985950  0.73642281     0.09200
H1080       H  0.28972567  0.80007872  0.76024656     0.12800
H1081       H  0.37050984  0.00434037  0.74597671     0.12800
H1082       H  0.34914129  0.02754113  0.76929133     0.12500
H1083       H  0.30128745  0.99501438  0.79202568     0.13100
H1084       H  0.26649288  0.82324814  0.78341343     0.15000
C1085       C  0.12335682  0.91442836  0.79233022    -0.05000
C1086       C  0.16140817  0.97045354  0.78771040    -0.04900
C1087       C  0.15354390  0.98947143  0.77471883    -0.23100
C1088       C  0.10872042  0.95163764  0.76599381     0.19100
C1089       C  0.06814942  0.89656927  0.77107457     0.16300
C1090       C  0.07442008  0.87948169  0.78450451    -0.18100
C1091       C  0.02455521  0.85786409  0.76225672    -0.19900
C1092       C  0.02194939  0.87294877  0.74838901    -0.12500
C1093       C  0.06238812  0.92741357  0.74310328     0.04200
C1094       C  0.10523062  0.96697832  0.75210214    -0.24600
H1095       H  0.20020681  0.99735323  0.79348164     0.09200
H1096       H  0.18493561  0.03187360  0.77103764     0.12800
H1097       H  0.04499853  0.83625741  0.78815163     0.12800
H1098       H  0.99314845  0.81545741  0.76599005     0.12500
H1099       H  0.98748850  0.84211143  0.74187164     0.13100
H1100       H  0.13585436  0.00951866  0.74832265     0.15000
C1101       C  0.12365809  0.74772150  0.78761891    -0.05000
C1102       C  0.15403730  0.71913231  0.78502301    -0.04900
C1103       C  0.14794569  0.69051285  0.77226202    -0.23100
C1104       C  0.11272757  0.69172573  0.76172653     0.19100
C1105       C  0.08130091  0.71959983  0.76437323     0.16300
C1106       C  0.08617343  0.74627211  0.77737003    -0.18100
C1107       C  0.04705590  0.72215155  0.75380681    -0.19900
C1108       C  0.04274437  0.69597073  0.74081574    -0.12500
C1109       C  0.07285510  0.66706892  0.73811353     0.04200
C1110       C  0.10858402  0.66589178  0.74857958    -0.24600
H1111       H  0.18593955  0.72279699  0.79230146     0.09200
H1112       H  0.17286108  0.66991496  0.77037788     0.12800
H1113       H  0.06390588  0.76960962  0.77911882     0.12800
H1114       H  0.02301201  0.74375402  0.75564736     0.12500
H1115       H  0.01436997  0.69673430  0.73300295     0.13100
H1116       H  0.13100012  0.64262266  0.74674625     0.15000
C1117       C  0.07107255  0.97214539  0.86968198    -0.05000
C1118       C  0.12960409  0.99238968  0.87038896    -0.04900
C1119       C  0.15632414  0.97794130  0.85978929    -0.23100
C1120       C  0.12499087  0.94497817  0.84816946     0.19100
C1121       C  0.06587509  0.92386053  0.84759066     0.16300
C1122       C  0.03917846  0.93577145  0.85858873    -0.18100
C1123       C  0.03459735  0.89280480  0.83580376    -0.19900
C1124       C  0.06172259  0.88224355  0.82464960    -0.12500
C1125       C  0.12009397  0.90189433  0.82527502     0.04200
C1126       C  0.15161493  0.93314327  0.83704684    -0.24600
H1127       H  0.15487181  0.02124053  0.87875323     0.09200
H1128       H  0.20172394  0.99449129  0.86036229     0.12800
H1129       H  0.99377605  0.91961308  0.85807714     0.12800
H1130       H  0.98924487  0.87661475  0.83523905     0.12500
H1131       H  0.03671581  0.85649480  0.81584345     0.13100
H1132       H  0.19664980  0.94750984  0.83757997     0.15000
C1133       C  0.28438304  0.90320265  0.82308064    -0.05000
C1134       C  0.32118034  0.96280481  0.82327048    -0.04900
C1135       C  0.35840277  0.98872211  0.83441370    -0.23100
C1136       C  0.35906715  0.95535857  0.84557465     0.19100
C1137       C  0.32360542  0.89494455  0.84534649     0.16300
C1138       C  0.28636801  0.86917675  0.83403218    -0.18100
C1139       C  0.32547345  0.86201981  0.85657236    -0.19900
C1140       C  0.36333526  0.88891485  0.86772479    -0.12500
C1141       C  0.39847439  0.94894379  0.86784569     0.04200
C1142       C  0.39502506  0.98171540  0.85692007    -0.24600
H1143       H  0.31833418  0.98989057  0.81535996     0.09200
H1144       H  0.38549800  0.03517413  0.83452164     0.12800
H1145       H  0.25696620  0.82307079  0.83404666     0.12800
H1146       H  0.29865718  0.81556192  0.85655406     0.12500
H1147       H  0.36668111  0.86298753  0.87592539     0.13100
H1148       H  0.42249950  0.02818449  0.85698859     0.15000
C1149       C  0.05232217  0.63295182  0.86747316    -0.05000
C1150       C  0.02261578  0.66262677  0.86590383    -0.04900
C1151       C  0.03124114  0.69597864  0.85390319    -0.23100
C1152       C  0.06902481  0.69906634  0.84331826     0.19100
C1153       C  0.10015131  0.67050353  0.84511423     0.16300
C1154       C  0.09219459  0.63845695  0.85726261    -0.18100
C1155       C  0.13855841  0.67410026  0.83470300    -0.19900
C1156       C  0.14831007  0.70826924  0.82288078    -0.12500
C1157       C  0.11847011  0.73763113  0.82112638     0.04200
C1158       C  0.07763268  0.73158476  0.83116600    -0.24600
H1159       H  0.49027446  0.65709891  0.87345825     0.09200
H1160       H  0.50724984  0.71785194  0.85270324     0.12800
H1161       H  0.11449666  0.61477543  0.85842276     0.12800
H1162       H  0.16305262  0.65280776  0.83603636     0.12500
H1163       H  0.18272140  0.71571653  0.81584273     0.13100
H1164       H  0.05642734  0.75639328  0.83008655     0.15000
C1165       C  0.42275485  0.78563345  0.22661962    -0.05000
C1166       C  0.47905105  0.80378784  0.23051285    -0.04900
C1167       C  0.50046998  0.83192667  0.24334720    -0.23100
C1168       C  0.46450322  0.83852879  0.25288647     0.19100
C1169       C  0.40829967  0.82171461  0.24883859     0.16300
C1170       C  0.38919351  0.79869393  0.23540696    -0.18100
C1171       C  0.37078021  0.82418108  0.25862855    -0.19900
C1172       C  0.38833290  0.84207178  0.27239990    -0.12500
C1173       C  0.44433902  0.86001906  0.27645587     0.04200
C1174       C  0.48271887  0.85931857  0.26656681    -0.24600
H1175       H  0.50481882  0.79179045  0.22420431     0.09200
H1176       H  0.54354224  0.84410785  0.24628897     0.12800
H1177       H  0.34559230  0.78430308  0.23245095     0.12800
H1178       H  0.32745326  0.81113086  0.25571306     0.12500
H1179       H  0.35888670  0.84446877  0.27973355     0.13100
H1180       H  0.52638865  0.87434372  0.26959157     0.15000
C1181       C  0.43456370  0.55794639  0.27577946    -0.05000
C1182       C  0.45936158  0.61807929  0.27569677    -0.04900
C1183       C  0.46284199  0.64700395  0.26331403    -0.23100
C1184       C  0.44037593  0.61617716  0.25085691     0.19100
C1185       C  0.41555645  0.55571478  0.25069633     0.16300
C1186       C  0.41379628  0.52698955  0.26313539    -0.18100
C1187       C  0.39067977  0.52512352  0.23826100    -0.19900
C1188       C  0.38555222  0.55371604  0.22658335    -0.12500
C1189       C  0.40748402  0.61336532  0.22708837     0.04200
C1190       C  0.43858357  0.64462483  0.23884251    -0.24600
H1191       H  0.97718751  0.64305990  0.28518215     0.09200
H1192       H  0.98180477  0.69341059  0.26356166     0.12800
H1193       H  0.39542361  0.48068918  0.26303102     0.12800
H1194       H  0.37157494  0.47872805  0.23791858     0.12500
H1195       H  0.36069257  0.52881097  0.21767098     0.13100
H1196       H  0.45592952  0.69080744  0.23920411     0.15000
C1197       C  0.25094643  0.62676933  0.22920422    -0.05000
C1198       C  0.20059999  0.57356046  0.22769046    -0.04900
C1199       C  0.16192597  0.55021076  0.23894558    -0.23100
C1200       C  0.17452638  0.57847845  0.25204303     0.19100
C1201       C  0.22490117  0.63178768  0.25361737     0.16300
C1202       C  0.26099925  0.65640995  0.24208115    -0.18100
C1203       C  0.23969104  0.65885129  0.26683714    -0.19900
C1204       C  0.20444316  0.63321968  0.27850744    -0.12500
C1205       C  0.15331354  0.58115070  0.27698210     0.04200
C1206       C  0.13847929  0.55398621  0.26369197    -0.24600
H1207       H  0.19225487  0.54883136  0.21810561     0.09200
H1208       H  0.12355438  0.50891634  0.23760948     0.12800
H1209       H  0.29880680  0.69762751  0.24351649     0.12800
H1210       H  0.27883871  0.69950925  0.26817488     0.12500
H1211       H  0.21628874  0.65474624  0.28860530     0.13100
H1212       H  0.09922397  0.51329166  0.26247867     0.15000
C1213       C  0.24142279  0.98947968  0.39872206    -0.05000
C1214       C  0.29997364  0.02928921  0.39928606    -0.04900
C1215       C  0.33464586  0.55730451  0.41399623    -0.23100
C1216       C  0.30050841  0.54553836  0.42601563     0.19100
C1217       C  0.24137197  0.50685368  0.42532614     0.16300
C1218       C  0.20719241  0.98139949  0.41072146    -0.18100
C1219       C  0.20772414  0.49690442  0.43748850    -0.19900
C1220       C  0.23224304  0.52804368  0.44988592    -0.12500
C1221       C  0.29076512  0.56812211  0.45031181     0.04200
C1222       C  0.32464506  0.57388914  0.43856926    -0.24600
H1223       H  0.32711240  0.03601801  0.39023608     0.09200
H1224       H  0.37993758  0.58739003  0.41438325     0.12800
H1225       H  0.16205175  0.95018329  0.41045902     0.12800
H1226       H  0.16224727  0.46732497  0.43720202     0.12500
H1227       H  0.20505822  0.52395748  0.45871922     0.13100
H1228       H  0.36961131  0.60477249  0.43877496     0.15000
C1229       C  0.01685951  0.74248056  0.40233406    -0.05000
C1230       C  0.00385844  0.68923444  0.40814303    -0.04900
C1231       C  0.98806201  0.67700331  0.42223840    -0.23100
C1232       C  0.48360988  0.71717881  0.43074563     0.19100
C1233       C  0.49437400  0.77004619  0.42496701     0.16300
C1234       C  0.51112977  0.78250364  0.41079681    -0.18100
C1235       C  0.48741889  0.80898538  0.43345877    -0.19900
C1236       C  0.46467899  0.79302133  0.44704904    -0.12500
C1237       C  0.45109427  0.73916007  0.45250415     0.04200
C1238       C  0.46512734  0.70370299  0.44471687    -0.24600
H1239       H  0.00826948  0.65781250  0.40192680     0.09200
H1240       H  0.97914306  0.63594577  0.42648063     0.12800
H1241       H  0.52175561  0.82409072  0.40654446     0.12800
H1242       H  0.49560442  0.84985640  0.42925984     0.12500
H1243       H  0.45251312  0.82018165  0.45275033     0.13100
H1244       H  0.45463207  0.66213714  0.44894961     0.15000
C1245       C  0.23374621  0.74583709  0.40143122    -0.05000
C1246       C  0.21193376  0.68669027  0.40353652    -0.04900
C1247       C  0.21521438  0.66591123  0.41668470    -0.23100
C1248       C  0.24042338  0.70395898  0.42795992     0.19100
C1249       C  0.26260200  0.76354621  0.42604930     0.16300
C1250       C  0.25912524  0.78414386  0.41277943    -0.18100
C1251       C  0.28913640  0.80147079  0.43736286    -0.19900
C1252       C  0.29813819  0.78093388  0.45002582    -0.12500
C1253       C  0.27901974  0.72222369  0.45158108     0.04200
C1254       C  0.24694879  0.68364716  0.44087288    -0.24600
H1255       H  0.19136470  0.65628410  0.39505133     0.09200
H1256       H  0.19839016  0.62012169  0.41801062     0.12800
H1257       H  0.27493938  0.82968877  0.41138643     0.12800
H1258       H  0.30612419  0.84726361  0.43610586     0.12500
H1259       H  0.32412345  0.81127920  0.45808108     0.13100
H1260       H  0.23286988  0.63828245  0.44203917     0.15000
Zn1261     Zn  0.62965337  0.36749347  0.37091242     1.49700
Zn1262     Zn  0.63554553  0.25165724  0.36956024     1.49400
Zn1263     Zn  0.67029195  0.33004761  0.34185766     1.49100
Zn1264     Zn  0.74765174  0.37117178  0.37009859     1.49500
O1265       O  0.67042322  0.33067173  0.36256252    -1.83900
O1266       O  0.56893803  0.31567906  0.38460330    -0.74500
O1267       O  0.59794570  0.19059285  0.35500885    -0.74300
O1268       O  0.62630257  0.37381230  0.33567249    -0.73800
O1269       O  0.58136700  0.24031111  0.38488617    -0.74500
O1270       O  0.59848271  0.39667671  0.35572099    -0.74100
O1271       O  0.62600557  0.24068643  0.33505731    -0.74700
O1272       O  0.80749757  0.39623793  0.35519932    -0.74100
O1273       O  0.68881631  0.23490172  0.37981033    -0.74900
O1274       O  0.75811877  0.37576484  0.33524973    -0.74200
O1275       O  0.75730541  0.32356840  0.38446511    -0.74700
O1276       O  0.76345101  0.43854670  0.38192262    -0.74600
O1277       O  0.67870512  0.43046434  0.38459461    -0.74400
C1278       C  0.55993133  0.26876502  0.39007522     0.77400
C1279       C  0.59972447  0.19210735  0.34167899     0.77900
C1280       C  0.60073957  0.39651707  0.34231018     0.76800
C1281       C  0.80590286  0.39753004  0.34186582     0.77200
C1282       C  0.73067466  0.27020070  0.38717331     0.78300
C1283       C  0.73056549  0.45253272  0.38807014     0.77400
Zn1284     Zn  0.95725036  0.03282391  0.32288798     1.49700
Zn1285     Zn  0.95846677  0.40841728  0.32276997     1.49400
Zn1286     Zn  0.49474449  0.47374734  0.29618745     1.49100
Zn1287     Zn  0.57837470  0.03310662  0.32020482     1.49500
O1288       O  0.50050012  0.48760692  0.31593487    -1.83900
O1289       O  0.88224142  0.47397414  0.32865992    -0.74500
O1290       O  0.91944619  0.35181252  0.30625812    -0.74300
O1291       O  0.91692460  0.97828500  0.29272442    -0.73800
O1292       O  0.88977200  0.39746654  0.33444446    -0.74500
O1293       O  0.93265525  0.05471252  0.30472038    -0.74100
O1294       O  0.98888399  0.40050445  0.29133075    -0.74700
O1295       O  0.61296393  0.05401976  0.29995742    -0.74100
O1296       O  0.51786653  0.39299961  0.33263241    -0.74900
O1297       O  0.54722209  0.07194321  0.29242371    -0.74200
O1298       O  0.60121101  0.47587071  0.33063525    -0.74700
O1299       O  0.59902238  0.11091019  0.33056229    -0.74600
O1300       O  0.51597245  0.10960219  0.33266676    -0.74400
C1301       C  0.86170857  0.42407319  0.33433270     0.77400
C1302       C  0.94188510  0.35643208  0.29418435     0.77900
C1303       C  0.91341369  0.02321696  0.29377684     0.76800
C1304       C  0.59403323  0.07376604  0.29054126     0.77200
C1305       C  0.57196278  0.42299357  0.33457030     0.78300
C1306       C  0.57029275  0.13516418  0.33425296     0.77400
C1307       C  0.67681603  0.35059042  0.82005473     0.45700
H1308       H  0.67685798  0.34670390  0.83167704    -0.03300
C1309       C  0.67615154  0.35940948  0.79309618     0.45800
H1310       H  0.67621953  0.36365104  0.78145157    -0.03300
C1311       C  0.64570952  0.38149935  0.81512538    -0.17000
C1312       C  0.73669112  0.38443972  0.81361411    -0.16800
C1313       C  0.64756644  0.29210411  0.81249997    -0.17100
C1314       C  0.64525486  0.38586529  0.80078927    -0.17100
C1315       C  0.73588408  0.38929652  0.79929250    -0.16700
C1316       C  0.64821951  0.29695607  0.79808250    -0.17000
C1317       C  0.01148211  0.52420940  0.87147302     0.45700
H1318       H  0.01378824  0.52364878  0.85980635    -0.03300
C1319       C  0.00731988  0.52719104  0.89842356     0.45800
H1320       H  0.00455575  0.52954521  0.91003274    -0.03300
C1321       C  0.52715636  0.07775761  0.87680033    -0.17000
C1322       C  0.95114548  0.48682354  0.87734766    -0.16800
C1323       C  0.54724437  0.50201520  0.87866939    -0.17100
C1324       C  0.52460303  0.08007845  0.89118062    -0.17100
C1325       C  0.94924387  0.48607752  0.89180872    -0.16700
C1326       C  0.54683502  0.50561906  0.89313770    -0.17000
C1327       C  0.67530686  0.33755350  0.55954486     0.45700
H1328       H  0.67497050  0.33896313  0.57125094    -0.03300
C1329       C  0.67603530  0.33407874  0.53246482     0.45800
H1330       H  0.67666845  0.33299000  0.52079427    -0.03300
C1331       C  0.70073292  0.39674491  0.55279599    -0.17000
C1332       C  0.70968516  0.31148293  0.55366617    -0.16800
C1333       C  0.61603520  0.30265719  0.55325626    -0.17100
C1334       C  0.70167839  0.39536217  0.53837298    -0.17100
C1335       C  0.71013153  0.30956309  0.53932021    -0.16700
C1336       C  0.61582347  0.30044689  0.53886363    -0.17000
C1337       C  0.84414102  0.17971117  0.45399531     0.45700
H1338       H  0.84857984  0.18439683  0.44236589    -0.03300
C1339       C  0.83542426  0.17252429  0.48097371     0.45800
H1340       H  0.83164353  0.16958190  0.49260565    -0.03300
C1341       C  0.81097561  0.11729986  0.45911082    -0.17000
C1342       C  0.90138215  0.20722748  0.46147252    -0.16800
C1343       C  0.81235144  0.20799945  0.46022860    -0.17100
C1344       C  0.80575813  0.11343014  0.47354409    -0.17100
C1345       C  0.89721344  0.20304368  0.47579995    -0.16700
C1346       C  0.80893602  0.20543641  0.47450816    -0.17000
Zn1347     Zn  0.75926153  0.12143235  0.64431882     1.49700
Zn1348     Zn  0.87199878  0.24643927  0.64400176     1.49400
Zn1349     Zn  0.83917838  0.16696813  0.67207279     1.49100
Zn1350     Zn  0.88391092  0.13401411  0.64362198     1.49500
O1351       O  0.83845746  0.16701538  0.65146159    -1.83900
O1352       O  0.74126646  0.16813739  0.63131825    -0.74500
O1353       O  0.90171454  0.30916984  0.65862109    -0.74300
O1354       O  0.75007025  0.12127212  0.67906728    -0.73800
O1355       O  0.81952142  0.25395557  0.63082876    -0.74500
O1356       O  0.69833772  0.08883369  0.65956110    -0.74100
O1357       O  0.88433512  0.25779735  0.67826366    -0.74700
O1358       O  0.91593681  0.10262363  0.65802244    -0.74100
O1359       O  0.93497198  0.26504435  0.63059977    -0.74900
O1360       O  0.88400319  0.12194297  0.67780514    -0.74200
O1361       O  0.94460510  0.18801612  0.63018038    -0.74700
O1362       O  0.83743477  0.07157524  0.63020771    -0.74600
O1363       O  0.75079791  0.06021761  0.63070632    -0.74400
C1364       C  0.77048211  0.21833705  0.62618838     0.77400
C1365       C  0.90511255  0.30707012  0.67190138     0.77900
C1366       C  0.70099406  0.09364783  0.67290640     0.76800
C1367       C  0.91113054  0.10016801  0.67136064     0.77200
C1368       C  0.95674516  0.23698894  0.62540484     0.78300
C1369       C  0.78726635  0.04897688  0.62543634     0.77400
Zn1370     Zn  0.50708564  0.00296575  0.68026363     1.49700
Zn1371     Zn  0.58267233  0.04546703  0.70936230     1.49400
Zn1372     Zn  0.96295411  0.04113131  0.70808032     1.49100
Zn1373     Zn  0.96243178  0.42386142  0.70781813     1.49500
O1374       O  0.50520536  0.00402373  0.70093285    -1.83900
O1375       O  0.59690260  0.04431113  0.67456456    -0.74500
O1376       O  0.59501648  0.11345790  0.72134771    -0.74300
O1377       O  0.93172989  0.06898320  0.69278544    -0.73800
O1378       O  0.64672905  0.07043486  0.69453098    -0.74500
O1379       O  0.96531363  0.04971184  0.67327189    -0.74100
O1380       O  0.51092527  0.10783200  0.72054471    -0.74700
O1381       O  0.89595966  0.40673214  0.71991141    -0.74100
O1382       O  0.58662420  0.49755835  0.72450928    -0.74900
O1383       O  0.90069073  0.49110186  0.72182046    -0.74200
O1384       O  0.50788655  0.41276974  0.72239350    -0.74700
O1385       O  0.93516581  0.36112619  0.69323115    -0.74600
O1386       O  0.95631726  0.41288035  0.67359729    -0.74400
C1387       C  0.64526280  0.06772204  0.68109677     0.77400
C1388       C  0.56063837  0.12955631  0.72558267     0.77900
C1389       C  0.93755553  0.07134426  0.67947534     0.76800
C1390       C  0.88132342  0.43962713  0.72587179     0.77200
C1391       C  0.55295764  0.44687535  0.72899147     0.78300
C1392       C  0.93382206  0.36341881  0.67992131     0.77400
C1393       C  0.78657846  0.13188074  0.22706823     0.45700
H1394       H  0.77734450  0.12835956  0.23853297    -0.03300
C1395       C  0.80410868  0.13632616  0.20036711     0.45800
H1396       H  0.81270581  0.13916659  0.18886245    -0.03300
C1397       C  0.73249028  0.11054525  0.21840366    -0.17000
C1398       C  0.82800108  0.19319016  0.22191962    -0.16800
C1399       C  0.81422311  0.09686923  0.22243054    -0.17100
C1400       C  0.74157047  0.11347560  0.20418095    -0.17100
C1401       C  0.83757116  0.19524217  0.20756987    -0.16700
C1402       C  0.82177168  0.09791442  0.20814996    -0.17000
C1403       C  0.49149899  0.01469120  0.14661846     0.45700
H1404       H  0.99686113  0.01557266  0.15819691    -0.03300
C1405       C  0.47793282  0.00998319  0.11980119     0.45800
H1406       H  0.47080507  0.00763618  0.10828802    -0.03300
C1407       C  0.97468294  0.41596681  0.14454071    -0.17000
C1408       C  0.95318454  0.03802915  0.14184541    -0.16800
C1409       C  0.54768457  0.04905975  0.13840001    -0.17100
C1410       C  0.97642899  0.41223300  0.13019423    -0.17100
C1411       C  0.94625481  0.03549545  0.12754944    -0.16700
C1412       C  0.54064513  0.04596145  0.12406423    -0.17000
Zn1413     Zn  0.65971289  0.32472686  0.96964233     1.49700
Zn1414     Zn  0.63383613  0.25552456  0.99392997     1.49400
Zn1415     Zn  0.75293716  0.37574711  0.99176690     1.49100
Zn1416     Zn  0.63465985  0.37985142  0.99339892     1.49500
O1417       O  0.67217088  0.33638986  0.98900940    -1.83900
O1418       O  0.58458925  0.25771166  0.96574711    -0.74500
O1419       O  0.68947098  0.24017942  0.00505463    -0.74300
O1420       O  0.79096562  0.38781620  0.97228057    -0.73800
O1421       O  0.61573157  0.20636640  0.97582887    -0.74500
O1422       O  0.72017350  0.31831120  0.96002507    -0.74100
O1423       O  0.77271208  0.32239305  0.00302629    -0.74700
O1424       O  0.69184095  0.45155382  0.00435598    -0.74100
O1425       O  0.55930477  0.23956058  0.00366990    -0.74900
O1426       O  0.77478054  0.45340053  0.00162840    -0.74200
O1427       O  0.55966988  0.32336838  0.00346288    -0.74700
O1428       O  0.61637881  0.41152370  0.97561488    -0.74600
O1429       O  0.66092603  0.38726370  0.95995330    -0.74400
C1430       C  0.59188890  0.21507924  0.96541889     0.75900
C1431       C  0.74338837  0.26981498  0.00702245     0.77900
C1432       C  0.77177785  0.35780810  0.96105317     0.76800
C1433       C  0.74594255  0.47653747  0.00595014     0.77200
C1434       C  0.53547572  0.26949438  0.00635116     0.78300
C1435       C  0.63427470  0.41282871  0.96309878     0.77400
Zn1436     Zn  0.83411617  0.16231352  0.04817276     1.49700
Zn1437     Zn  0.88083003  0.12880440  0.02559583     1.49400
Zn1438     Zn  0.76156186  0.12835525  0.02444317     1.49100
Zn1439     Zn  0.88091125  0.25136553  0.02714080     1.49500
O1440       O  0.84023287  0.16913027  0.02888607    -1.83900
O1441       O  0.81707668  0.08565750  0.05376413    -0.74500
O1442       O  0.82769570  0.05388336  0.01483201    -0.74300
O1443       O  0.71347717  0.10306560  0.04229232    -0.73800
O1444       O  0.89971086  0.10600612  0.04461284    -0.74500
O1445       O  0.77350461  0.17404924  0.05582236    -0.74100
O1446       O  0.74584377  0.05488491  0.01388362    -0.74700
O1447       O  0.82476234  0.27180849  0.01745154    -0.74100
O1448       O  0.95445420  0.18655520  0.01564192    -0.74900
O1449       O  0.74453695  0.18644592  0.01498671    -0.74200
O1450       O  0.95456214  0.27021841  0.01627659    -0.74700
O1451       O  0.90469611  0.28971919  0.04697760    -0.74600
O1452       O  0.90592027  0.21663193  0.05701722    -0.74400
C1453       C  0.86269428  0.08429948  0.05444550     0.77400
C1454       C  0.77503402  0.03019221  0.01147018     0.77900
C1455       C  0.72432152  0.13149904  0.05372865     0.76800
C1456       C  0.77253183  0.24139850  0.01358438     0.77200
C1457       C  0.97829005  0.24060959  0.01305838     0.78300
C1458       C  0.91765472  0.26829197  0.05730306     0.77400
C1459       C  0.95029943  0.36037091  0.12133238    -0.05000
C1460       C  0.89349292  0.33814728  0.11732241    -0.04900
C1461       C  0.87537657  0.31368078  0.10402478    -0.23100
C1462       C  0.91452510  0.31327951  0.09440418     0.19100
C1463       C  0.97056819  0.33118889  0.09877728     0.16300
C1464       C  0.98726110  0.35230828  0.11246474    -0.18100
C1465       C  0.00994149  0.33139430  0.08909466    -0.19900
C1466       C  0.99399498  0.31468551  0.07514050    -0.12500
C1467       C  0.93895694  0.29867455  0.07065114     0.04200
C1468       C  0.89914957  0.29714601  0.08037621    -0.24600
H1469       H  0.86493546  0.34588727  0.12370752     0.09200
H1470       H  0.83212014  0.29968249  0.10086037     0.12800
H1471       H  0.03121150  0.36969129  0.11554602     0.12800
H1472       H  0.05296573  0.34464282  0.09229127     0.12500
H1473       H  0.02412463  0.31298643  0.06791729     0.13100
H1474       H  0.85573494  0.28186037  0.07707419     0.15000
C1475       C  0.91342393  0.05393869  0.11898556    -0.05000
C1476       C  0.93773425  0.11276387  0.11608589    -0.04900
C1477       C  0.93140205  0.13081473  0.10277318    -0.23100
C1478       C  0.90233427  0.09000935  0.09216631     0.19100
C1479       C  0.87372188  0.03082270  0.09547711     0.16300
C1480       C  0.87654600  0.01362298  0.10913370    -0.18100
C1481       C  0.84599342  0.98966614  0.08487960    -0.19900
C1482       C  0.84611234  0.00706850  0.07107679    -0.12500
C1483       C  0.87444546  0.06561766  0.06771221     0.04200
C1484       C  0.90235229  0.10704720  0.07826832    -0.24600
H1485       H  0.96690023  0.14447630  0.12347959     0.09200
H1486       H  0.95302416  0.17644310  0.10045004     0.12800
H1487       H  0.91503046  0.44464455  0.10400709     0.12800
H1488       H  0.88423871  0.43873936  0.07954662     0.12500
H1489       H  0.82259116  0.97499289  0.06310325     0.13100
H1490       H  0.92257817  0.15238987  0.07573134     0.15000
C1491       C  0.58551820  0.07032427  0.11297697    -0.05000
C1492       C  0.63406921  0.12518208  0.11407191    -0.04900
C1493       C  0.67093502  0.14935292  0.10250436    -0.23100
C1494       C  0.65883267  0.11942168  0.08965225     0.19100
C1495       C  0.61008503  0.06443914  0.08856013     0.16300
C1496       C  0.57517240  0.03998432  0.10024258    -0.18100
C1497       C  0.59632891  0.03452768  0.07576211    -0.19900
C1498       C  0.63195726  0.05816603  0.06414439    -0.12500
C1499       C  0.68200541  0.11182008  0.06518627     0.04200
C1500       C  0.69471053  0.14288680  0.07792054    -0.24600
H1501       H  0.64251458  0.15006432  0.12363530     0.09200
H1502       H  0.70812491  0.19181244  0.10350843     0.12800
H1503       H  0.58752349  0.46268823  0.10659863     0.12800
H1504       H  0.61313223  0.46424929  0.08224261     0.12500
H1505       H  0.62140376  0.03333168  0.05450525     0.13100
H1506       H  0.73325802  0.18439819  0.07884122     0.15000
C1507       C  0.85201070  0.07493874  0.20007886    -0.05000
C1508       C  0.91135551  0.10219362  0.20101143    -0.04900
C1509       C  0.94320585  0.10094325  0.18955726    -0.23100
C1510       C  0.91579690  0.07398093  0.17697807     0.19100
C1511       C  0.85589120  0.04393430  0.17629875     0.16300
C1512       C  0.82441327  0.04248245  0.18811526    -0.18100
C1513       C  0.82861512  0.01830313  0.16361957    -0.19900
C1514       C  0.86063306  0.02083394  0.15178811    -0.12500
C1515       C  0.92017979  0.04924766  0.15250369     0.04200
C1516       C  0.94731403  0.07688274  0.16504841    -0.24600
H1517       H  0.93319503  0.12864272  0.21005490     0.09200
H1518       H  0.98921503  0.12392655  0.19022558     0.12800
H1519       H  0.77851037  0.02114866  0.18753287     0.12800
H1520       H  0.78260418  0.99558052  0.16293297     0.12500
H1521       H  0.83873473  0.99768713  0.14237226     0.13100
H1522       H  0.49295371  0.09885138  0.16572561     0.15000
C1523       C  0.87430672  0.24546806  0.19859007    -0.05000
C1524       C  0.93242899  0.26397190  0.19691874    -0.04900
C1525       C  0.96439758  0.30171224  0.18606015    -0.23100
C1526       C  0.93776194  0.31778217  0.17594887     0.19100
C1527       C  0.87851591  0.29626227  0.17699029     0.16300
C1528       C  0.84759323  0.26143026  0.18843776    -0.18100
C1529       C  0.85099768  0.30916840  0.16644137    -0.19900
C1530       C  0.88216991  0.34488270  0.15524404    -0.12500
C1531       C  0.94122381  0.36790756  0.15433282     0.04200
C1532       C  0.96895041  0.35426900  0.16471681    -0.24600
H1533       H  0.95253056  0.24643312  0.20338999     0.09200
H1534       H  0.00932332  0.31590373  0.18514989     0.12800
H1535       H  0.80187910  0.24368971  0.18901376     0.12800
H1536       H  0.80555180  0.29275630  0.16702184     0.12500
H1537       H  0.86061377  0.35725260  0.14775607     0.13100
H1538       H  0.01481830  0.37323550  0.16421916     0.15000
C1539       C  0.70012078  0.10448439  0.19305172    -0.05000
C1540       C  0.66545407  0.12914266  0.19428508    -0.04900
C1541       C  0.63475442  0.13047286  0.18273575    -0.23100
C1542       C  0.63798439  0.10676326  0.16982410     0.19100
C1543       C  0.67190176  0.08097732  0.16851426     0.16300
C1544       C  0.70288592  0.08032783  0.18011131    -0.18100
C1545       C  0.67342356  0.05554298  0.15568376    -0.19900
C1546       C  0.63729543  0.05089936  0.14471993    -0.12500
C1547       C  0.60136294  0.07388925  0.14630637     0.04200
C1548       C  0.60558242  0.10578548  0.15840279    -0.24600
H1549       H  0.66420474  0.14986572  0.20395417     0.09200
H1550       H  0.60851561  0.15008716  0.18389150     0.12800
H1551       H  0.72978301  0.06161348  0.17897075     0.12800
H1552       H  0.69964088  0.03595488  0.15448159     0.12500
H1553       H  0.63403717  0.02544134  0.13553133     0.13100
H1554       H  0.57938615  0.12524637  0.15938834     0.15000
C1555       C  0.72198834  0.44644243  0.56228328    -0.05000
C1556       C  0.68445576  0.46518301  0.56655562    -0.04900
C1557       C  0.68930353  0.48951019  0.57984212    -0.23100
C1558       C  0.73044408  0.49332026  0.58925521     0.19100
C1559       C  0.76976353  0.47660571  0.58482338     0.16300
C1560       C  0.76643462  0.45515002  0.57121126    -0.18100
C1561       C  0.80962570  0.47837711  0.59433190    -0.19900
C1562       C  0.81224254  0.99801376  0.60734647    -0.12500
C1563       C  0.77464495  0.01588526  0.61224121     0.04200
C1564       C  0.73302390  0.01347515  0.60311788    -0.24600
H1565       H  0.64762198  0.45546712  0.56030313     0.09200
H1566       H  0.65847362  0.50160765  0.58309106     0.12800
H1567       H  0.79392762  0.43841323  0.56818957     0.12800
H1568       H  0.83966480  0.46512546  0.59114264     0.12500
H1569       H  0.84494524  0.99989883  0.61412965     0.13100
H1570       H  0.70417419  0.02773076  0.60669882     0.15000
C1571       C  0.56711359  0.27782232  0.56292155    -0.05000
C1572       C  0.53911794  0.21891410  0.56594963    -0.04900
C1573       C  0.51083717  0.19880777  0.57883144    -0.23100
C1574       C  0.51174338  0.23778450  0.58886755     0.19100
C1575       C  0.53683295  0.29664446  0.58540381     0.16300
C1576       C  0.56276478  0.31579548  0.57228983    -0.18100
C1577       C  0.03843724  0.33594581  0.59537401    -0.19900
C1578       C  0.01523052  0.31705314  0.60874609    -0.12500
C1579       C  0.99057485  0.25868372  0.61238602     0.04200
C1580       C  0.48908342  0.21927652  0.60237158    -0.24600
H1581       H  0.54334910  0.18943285  0.55892580     0.09200
H1582       H  0.49134376  0.15340763  0.58128557     0.12800
H1583       H  0.58474266  0.36126417  0.56993691     0.12800
H1584       H  0.05768587  0.38124815  0.59283696     0.12500
H1585       H  0.01556774  0.34788056  0.61617144     0.13100
H1586       H  0.46854502  0.17383301  0.60492573     0.15000
C1587       C  0.75012205  0.23247339  0.61335943    -0.05000
C1588       C  0.69238370  0.20046646  0.60975403    -0.04900
C1589       C  0.67456840  0.20517689  0.59638433    -0.23100
C1590       C  0.71429062  0.24174845  0.58638656     0.19100
C1591       C  0.77237090  0.27524502  0.58994041     0.16300
C1592       C  0.78993545  0.27054012  0.60344295    -0.18100
C1593       C  0.81150718  0.31332004  0.57997435    -0.19900
C1594       C  0.79234783  0.32090471  0.56698052    -0.12500
C1595       C  0.73438725  0.28874518  0.56363285     0.04200
C1596       C  0.69620386  0.24732423  0.57310654    -0.24600
H1597       H  0.66119642  0.17046312  0.61715946     0.09200
H1598       H  0.62979027  0.17988826  0.59382505     0.12800
H1599       H  0.83479059  0.29467260  0.60601887     0.12800
H1600       H  0.85618362  0.33958947  0.58254499     0.12500
H1601       H  0.82192198  0.35504463  0.56011028     0.13100
H1602       H  0.65119096  0.22382565  0.57067881     0.15000
C1603       C  0.72327505  0.44458695  0.52865033    -0.05000
C1604       C  0.70351409  0.48358159  0.52954214    -0.04900
C1605       C  0.71449269  0.52251096  0.51869229    -0.23100
C1606       C  0.74433729  0.52203613  0.50665917     0.19100
C1607       C  0.75629811  0.98217119  0.50402305     0.16300
C1608       C  0.75506146  0.44549125  0.51679692    -0.18100
C1609       C  0.78088220  0.97814480  0.49131418    -0.19900
C1610       C  0.79249995  0.01787475  0.48052442    -0.12500
C1611       C  0.77835587  0.06097430  0.48224677     0.04200
C1612       C  0.74961876  0.06195848  0.49449947    -0.24600
H1613       H  0.67681759  0.48198668  0.53815460     0.09200
H1614       H  0.69823132  0.55184433  0.51952927     0.12800
H1615       H  0.77006985  0.41509228  0.51600157     0.12800
H1616       H  0.79320730  0.94584061  0.48995604     0.12500
H1617       H  0.81572212  0.01724175  0.47128294     0.13100
H1618       H  0.73811119  0.09486532  0.49582068     0.15000
C1619       C  0.56512427  0.27670140  0.52974142    -0.05000
C1620       C  0.52055444  0.28738962  0.53264779    -0.04900
C1621       C  0.47878457  0.27511778  0.52259196    -0.23100
C1622       C  0.48167060  0.25298129  0.50941412     0.19100
C1623       C  0.02545835  0.24074384  0.50655621     0.16300
C1624       C  0.56626722  0.25196549  0.51678970    -0.18100
C1625       C  0.02862064  0.21889154  0.49337375    -0.19900
C1626       C  0.98837808  0.20893685  0.48308486    -0.12500
C1627       C  0.94468236  0.22107446  0.48579732     0.04200
C1628       C  0.94183291  0.24332627  0.49900331    -0.24600
H1629       H  0.51963778  0.30822573  0.54232513     0.09200
H1630       H  0.44540310  0.28480174  0.52493187     0.12800
H1631       H  0.60041969  0.24386008  0.51434082     0.12800
H1632       H  0.06188812  0.20897379  0.49107222     0.12500
H1633       H  0.99022159  0.18962144  0.47324720     0.13100
H1634       H  0.90819281  0.25248483  0.50130177     0.15000
C1635       C  0.73947595  0.28823013  0.53032896    -0.05000
C1636       C  0.79837739  0.32220342  0.52824797    -0.04900
C1637       C  0.82367032  0.31492625  0.51617891    -0.23100
C1638       C  0.78978137  0.27523738  0.50585366     0.19100
C1639       C  0.73057300  0.24000153  0.50809083     0.16300
C1640       C  0.70639008  0.24527362  0.52059435    -0.18100
C1641       C  0.69647280  0.20099250  0.49766446    -0.19900
C1642       C  0.72153297  0.19432591  0.48548158    -0.12500
C1643       C  0.78054638  0.22715879  0.48360905     0.04200
C1644       C  0.81415801  0.26924315  0.49346423    -0.24600
H1645       H  0.82407717  0.35716424  0.53536441     0.09200
H1646       H  0.86916594  0.34209431  0.51460775     0.12800
H1647       H  0.66102433  0.21862362  0.52237660     0.12800
H1648       H  0.65088367  0.17422542  0.49918048     0.12500
H1649       H  0.69561567  0.16065762  0.47805560     0.13100
H1650       H  0.85977935  0.29448868  0.49187872     0.15000
C1651       C  0.80795322  0.37147172  0.94849762    -0.05000
C1652       C  0.86250250  0.37870208  0.94933556    -0.04900
C1653       C  0.89706858  0.39377909  0.93736565    -0.23100
C1654       C  0.87843621  0.40460663  0.92462460     0.19100
C1655       C  0.82377773  0.39815943  0.92369248     0.16300
C1656       C  0.78807659  0.37974155  0.93557378    -0.18100
C1657       C  0.80738231  0.41341248  0.91116429    -0.19900
C1658       C  0.84306048  0.93033305  0.89998964    -0.12500
C1659       C  0.90156472  0.44721764  0.90123093     0.04200
C1660       C  0.91529196  0.42579988  0.91312032    -0.24600
H1661       H  0.87816722  0.37252897  0.95922342     0.09200
H1662       H  0.93933363  0.39942999  0.93821582     0.12800
H1663       H  0.74608997  0.37502599  0.93501268     0.12800
H1664       H  0.76124111  0.89737280  0.90990737     0.12500
H1665       H  0.83114151  0.94597870  0.89092133     0.13100
H1666       H  0.95710608  0.43019320  0.91394844     0.15000
C1667       C  0.62219527  0.44045612  0.95142769    -0.05000
C1668       C  0.62153584  0.49180375  0.95313235    -0.04900
C1669       C  0.61264754  0.51770219  0.94147425    -0.23100
C1670       C  0.60306564  0.49178713  0.92811739     0.19100
C1671       C  0.60283823  0.43969006  0.92640688     0.16300
C1672       C  0.61318554  0.41486936  0.93801814    -0.18100
C1673       C  0.59026740  0.41225851  0.91323838    -0.19900
C1674       C  0.57472744  0.43473406  0.90200401    -0.12500
C1675       C  0.57429472  0.48643214  0.90360317     0.04200
C1676       C  0.59096911  0.51558917  0.91659244    -0.24600
H1677       H  0.62879148  0.51214640  0.96335071     0.09200
H1678       H  0.61207435  0.55734144  0.94297288     0.12800
H1679       H  0.61294295  0.37466040  0.93668044     0.12800
H1680       H  0.58951406  0.37188501  0.91184519     0.12500
H1681       H  0.56013802  0.40993511  0.89240612     0.13100
H1682       H  0.09101911  0.55531373  0.91811878     0.15000
C1683       C  0.58363551  0.18519555  0.95187513    -0.05000
C1684       C  0.62385113  0.17043220  0.94730796    -0.04900
C1685       C  0.62682723  0.15794576  0.93314419    -0.23100
C1686       C  0.58834151  0.15810621  0.92342341     0.19100
C1687       C  0.54585325  0.16996487  0.92805873     0.16300
C1688       C  0.54432518  0.18434940  0.94219718    -0.18100
C1689       C  0.50496162  0.16608827  0.91851511    -0.19900
C1690       C  0.50270717  0.14463247  0.90494650    -0.12500
C1691       C  0.54348335  0.13053022  0.90044968     0.04200
C1692       C  0.58923845  0.14278899  0.90933527    -0.24600
H1693       H  0.65542276  0.17225736  0.95449235     0.09200
H1694       H  0.65911897  0.14801339  0.92980382     0.12800
H1695       H  0.51350378  0.19619817  0.94561973     0.12800
H1696       H  0.47198057  0.17489457  0.92189764     0.12500
H1697       H  0.96582051  0.13347851  0.89853389     0.13100
H1698       H  0.62060843  0.13165160  0.90590088     0.15000
C1699       C  0.84831497  0.42045497  0.73908246    -0.05000
C1700       C  0.82716488  0.36382549  0.74385421    -0.04900
C1701       C  0.80833421  0.34898734  0.75769976    -0.23100
C1702       C  0.81014951  0.39044780  0.76698639     0.19100
C1703       C  0.82963090  0.44704138  0.76221315     0.16300
C1704       C  0.84844000  0.46162014  0.74829980    -0.18100
C1705       C  0.82888189  0.48767754  0.77138016    -0.19900
C1706       C  0.80475030  0.47098449  0.78477709    -0.12500
C1707       C  0.78398705  0.41439867  0.78941796     0.04200
C1708       C  0.78968594  0.37532507  0.78074153    -0.24600
H1709       H  0.82728668  0.33149485  0.73703997     0.09200
H1710       H  0.79266099  0.30516460  0.76116898     0.12800
H1711       H  0.86528424  0.50569478  0.74483872     0.12800
H1712       H  0.84326134  0.53119177  0.76785021     0.12500
H1713       H  0.79763719  0.50070110  0.79096303     0.13100
H1714       H  0.77173027  0.33111361  0.78412732     0.15000
C1715       C  0.62288689  0.41561454  0.79234949    -0.05000
C1716       C  0.66149633  0.47146513  0.78766058    -0.04900
C1717       C  0.65425968  0.49044184  0.77457259    -0.23100
C1718       C  0.60915438  0.45295718  0.76585680     0.19100
C1719       C  0.56807908  0.39821129  0.77101523     0.16300
C1720       C  0.57414041  0.38090472  0.78444600    -0.18100
C1721       C  0.52397925  0.35986908  0.76228140    -0.19900
C1722       C  0.52120257  0.37482455  0.74842119    -0.12500
C1723       C  0.56195259  0.42894062  0.74302007     0.04200
C1724       C  0.60553467  0.46825118  0.75193378    -0.24600
H1725       H  0.70023213  0.49816176  0.79346297     0.09200
H1726       H  0.68613888  0.53261591  0.77085478     0.12800
H1727       H  0.54470068  0.33758854  0.78801412     0.12800
H1728       H  0.49212619  0.31770728  0.76608875     0.12500
H1729       H  0.48626619  0.34417004  0.74200087     0.13100
H1730       H  0.63643149  0.51060925  0.74808517     0.15000
C1731       C  0.62867926  0.25117180  0.78728437    -0.05000
C1732       C  0.66210859  0.22627856  0.78411802    -0.04900
C1733       C  0.65609101  0.19806600  0.77129376    -0.23100
C1734       C  0.61817824  0.19644658  0.76113833     0.19100
C1735       C  0.58433117  0.22134703  0.76420667     0.16300
C1736       C  0.58912481  0.24756073  0.77731951    -0.18100
C1737       C  0.54743717  0.22111113  0.75396316    -0.19900
C1738       C  0.54260936  0.19460197  0.74096318    -0.12500
C1739       C  0.57512622  0.16848608  0.73786728     0.04200
C1740       C  0.61374563  0.17060978  0.74796128    -0.24600
H1741       H  0.69614027  0.23254536  0.79102188     0.09200
H1742       H  0.68303382  0.18001833  0.76905543     0.12800
H1743       H  0.56489063  0.26862049  0.77940945     0.12800
H1744       H  0.52156874  0.24054194  0.75609112     0.12500
H1745       H  0.51202625  0.19293188  0.73347093     0.13100
H1746       H  0.63829305  0.14974952  0.74584654     0.15000
C1747       C  0.57251315  0.47509183  0.86981671    -0.05000
C1748       C  0.62927697  0.48888305  0.87122725    -0.04900
C1749       C  0.65449954  0.47140925  0.86091297    -0.23100
C1750       C  0.62385810  0.44230955  0.84882749     0.19100
C1751       C  0.56625493  0.42691184  0.84760165     0.16300
C1752       C  0.54054783  0.44137669  0.85835188    -0.18100
C1753       C  0.53584587  0.39941787  0.83538999    -0.19900
C1754       C  0.56256655  0.38747387  0.82436716    -0.12500
C1755       C  0.61964305  0.40219576  0.82553235     0.04200
C1756       C  0.65003044  0.42941741  0.83780848    -0.24600
H1757       H  0.65465183  0.51510016  0.87993246     0.09200
H1758       H  0.69864649  0.48309471  0.86203459     0.12800
H1759       H  0.49620949  0.42928386  0.85735749     0.12800
H1760       H  0.49158542  0.38745913  0.83434789     0.12500
H1761       H  0.53810369  0.36483300  0.81518593     0.13100
H1762       H  0.69412639  0.44054833  0.83875882     0.15000
C1763       C  0.78702365  0.40974073  0.82283090    -0.05000
C1764       C  0.82739844  0.46857480  0.82209228    -0.04900
C1765       C  0.86703342  0.49499422  0.83281882    -0.23100
C1766       C  0.86602650  0.46309748  0.84455185     0.19100
C1767       C  0.82654984  0.40356650  0.84524145     0.16300
C1768       C  0.78791058  0.37718099  0.83425484    -0.18100
C1769       C  0.82555483  0.37192675  0.85707112    -0.19900
C1770       C  0.86422179  0.39893173  0.86802671    -0.12500
C1771       C  0.90361118  0.45799231  0.86733901     0.04200
C1772       C  0.90359690  0.48982627  0.85565316    -0.24600
H1773       H  0.82620286  0.49490334  0.81372168     0.09200
H1774       H  0.89716684  0.54081394  0.83218740     0.12800
H1775       H  0.75655497  0.33165900  0.83490333     0.12800
H1776       H  0.79539215  0.32616066  0.85774688     0.12500
H1777       H  0.86463413  0.37347422  0.87675701     0.13100
H1778       H  0.93393505  0.53565580  0.85507311     0.15000
C1779       C  0.54870631  0.12576759  0.86659134    -0.05000
C1780       C  0.53015441  0.16584379  0.86688979    -0.04900
C1781       C  0.54215451  0.20347930  0.85558563    -0.23100
C1782       C  0.57221418  0.20090122  0.84377445     0.19100
C1783       C  0.59149793  0.16111553  0.84345094     0.16300
C1784       C  0.58049796  0.12465067  0.85493797    -0.18100
C1785       C  0.62192859  0.15880919  0.83170113    -0.19900
C1786       C  0.63639801  0.19831543  0.82073194    -0.12500
C1787       C  0.61915387  0.23940851  0.82118946     0.04200
C1788       C  0.58506673  0.23880781  0.83249736    -0.24600
H1789       H  0.00429717  0.16644560  0.87549656     0.09200
H1790       H  0.02719995  0.23393339  0.85597807     0.12800
H1791       H  0.59553928  0.09421068  0.85465365     0.12800
H1792       H  0.63681621  0.12826682  0.83130634     0.12500
H1793       H  0.66432882  0.19907804  0.81253250     0.13100
H1794       H  0.57205128  0.27083745  0.83298358     0.15000
C1795       C  0.85791759  0.23882539  0.23271738    -0.05000
C1796       C  0.91755788  0.26917267  0.23333378    -0.04900
C1797       C  0.94563520  0.29724413  0.24563477    -0.23100
C1798       C  0.91453877  0.29363163  0.25778016     0.19100
C1799       C  0.85460302  0.26398391  0.25736833     0.16300
C1800       C  0.82689782  0.23870891  0.24471745    -0.18100
C1801       C  0.82355930  0.25856843  0.26972766    -0.19900
C1802       C  0.85191099  0.28438080  0.28225491    -0.12500
C1803       C  0.91165183  0.31618975  0.28254922     0.04200
C1804       C  0.94253431  0.31925648  0.27031631    -0.24600
H1805       H  0.94289060  0.26762845  0.22481845     0.09200
H1806       H  0.99173061  0.31936864  0.24585033     0.12800
H1807       H  0.78084453  0.21492779  0.24454823     0.12800
H1808       H  0.77741367  0.23524357  0.26964284     0.12500
H1809       H  0.82719965  0.28223918  0.29146130     0.13100
H1810       H  0.98870268  0.34371065  0.27039588     0.15000
C1811       C  0.89375296  0.04216670  0.28159651    -0.05000
C1812       C  0.89762630  0.09617298  0.28193149    -0.04900
C1813       C  0.88713029  0.11845042  0.26990572    -0.23100
C1814       C  0.87170238  0.08672716  0.25738174     0.19100
C1815       C  0.86624576  0.03179275  0.25684742     0.16300
C1816       C  0.87789919  0.00994590  0.26897083    -0.18100
C1817       C  0.84883782  0.99996212  0.24423150    -0.19900
C1818       C  0.83395575  0.02137280  0.23254918    -0.12500
C1819       C  0.83822726  0.07556610  0.23326584     0.04200
C1820       C  0.86006300  0.10879993  0.24550313    -0.24600
H1821       H  0.41038329  0.12206285  0.29140756     0.09200
H1822       H  0.39091358  0.16054670  0.27041030     0.12800
H1823       H  0.87533581  0.96842768  0.26851783     0.12800
H1824       H  0.84466520  0.95778556  0.24359081     0.12500
H1825       H  0.81716310  0.99486319  0.22324456     0.13100
H1826       H  0.86584144  0.15165010  0.24608653     0.15000
C1827       C  0.67840680  0.08848155  0.22613485    -0.05000
C1828       C  0.65187632  0.03103871  0.23062728    -0.04900
C1829       C  0.62722137  0.01590302  0.24403642    -0.23100
C1830       C  0.62987292  0.05844938  0.25312522     0.19100
C1831       C  0.65041104  0.11481763  0.24800609     0.16300
C1832       C  0.67251202  0.12877242  0.23430552    -0.18100
C1833       C  0.65297455  0.15744935  0.25704306    -0.19900
C1834       C  0.63711033  0.14483282  0.27116783    -0.12500
C1835       C  0.61962891  0.08985908  0.27649102     0.04200
C1836       C  0.61482701  0.04641401  0.26736913    -0.24600
H1837       H  0.65683310  0.99962293  0.22456025     0.09200
H1838       H  0.61064481  0.97220212  0.24770310     0.12800
H1839       H  0.69335269  0.17323161  0.23086942     0.12800
H1840       H  0.66808093  0.20071519  0.25324580     0.12500
H1841       H  0.63821755  0.17784563  0.27794679     0.13100
H1842       H  0.59862479  0.00314723  0.27132831     0.15000
C1843       C  0.75238867  0.49023425  0.40048598    -0.05000
C1844       C  0.81082804  0.52982638  0.40136376    -0.04900
C1845       C  0.82480415  0.05845612  0.41169695    -0.23100
C1846       C  0.79158926  0.04819418  0.42383557     0.19100
C1847       C  0.73220540  0.01041808  0.42337991     0.16300
C1848       C  0.71745476  0.47931223  0.41248483    -0.18100
C1849       C  0.69958987  0.00198151  0.43566774    -0.19900
C1850       C  0.72556956  0.03256183  0.44805583    -0.12500
C1851       C  0.78458795  0.07093033  0.44837534     0.04200
C1852       C  0.81715324  0.07639077  0.43634170    -0.24600
H1853       H  0.83847592  0.53821798  0.39233048     0.09200
H1854       H  0.87031605  0.08810937  0.41188521     0.12800
H1855       H  0.67246977  0.44776168  0.41198139     0.12800
H1856       H  0.65389548  0.97335395  0.43555403     0.12500
H1857       H  0.69926636  0.02898481  0.45704199     0.13100
H1858       H  0.86249476  0.10605481  0.43640023     0.15000
C1859       C  0.52950502  0.24953842  0.40362064    -0.05000
C1860       C  0.51282860  0.19407088  0.40856086    -0.04900
C1861       C  0.49293840  0.17812625  0.42226459    -0.23100
C1862       C  0.98902869  0.21727808  0.43126539     0.19100
C1863       C  0.00550308  0.27324320  0.42647995     0.16300
C1864       C  0.02575468  0.28912257  0.41266648    -0.18100
C1865       C  0.99979399  0.31158201  0.43548954    -0.19900
C1866       C  0.97259658  0.29242404  0.44852061    -0.12500
C1867       C  0.95306474  0.23570617  0.45283849     0.04200
C1868       C  0.96515759  0.19984742  0.44465473    -0.24600
H1869       H  0.51627178  0.16316995  0.40188864     0.09200
H1870       H  0.48007629  0.13499764  0.42577223     0.12800
H1871       H  0.03972298  0.33245295  0.40909182     0.12800
H1872       H  0.01243345  0.35474735  0.43205467     0.12500
H1873       H  0.96189177  0.31992016  0.45458652     0.13100
H1874       H  0.94941336  0.15589438  0.44799672     0.15000
C1875       C  0.74312592  0.24991159  0.40022791    -0.05000
C1876       C  0.72024670  0.19077136  0.40251854    -0.04900
C1877       C  0.72185047  0.17048633  0.41584288    -0.23100
C1878       C  0.74655644  0.20914106  0.42702911     0.19100
C1879       C  0.77068904  0.26882663  0.42483277     0.16300
C1880       C  0.76869929  0.28883960  0.41143140    -0.18100
C1881       C  0.79764123  0.30737897  0.43600531    -0.19900
C1882       C  0.80549219  0.28707907  0.44882315    -0.12500
C1883       C  0.78419143  0.22810293  0.45065096     0.04200
C1884       C  0.75087313  0.18920441  0.44015988    -0.24600
H1885       H  0.69966476  0.16006975  0.39408849     0.09200
H1886       H  0.70401085  0.12465718  0.41738973     0.12800
H1887       H  0.78549383  0.33448468  0.40984674     0.12800
H1888       H  0.81612542  0.35326292  0.43450032     0.12500
H1889       H  0.83222506  0.31752089  0.45677311     0.13100
H1890       H  0.73472500  0.14360071  0.44162263     0.15000
Zn1891     Zn  0.61968618  0.85961146  0.36981676     1.49700
Zn1892     Zn  0.62799292  0.74516650  0.36923118     1.49400
Zn1893     Zn  0.66477682  0.82417403  0.34124352     1.49100
Zn1894     Zn  0.73941622  0.86595211  0.37009705     1.49500
O1895       O  0.66276303  0.82412171  0.36204002    -1.83900
O1896       O  0.55654927  0.80696311  0.38296915    -0.74500
O1897       O  0.59368595  0.68428141  0.35433643    -0.74300
O1898       O  0.62267362  0.86991228  0.33432137    -0.73800
O1899       O  0.57056928  0.73270881  0.38400520    -0.74500
O1900       O  0.59114649  0.88973970  0.35417309    -0.74100
O1901       O  0.62073792  0.73538844  0.33448760    -0.74700
O1902       O  0.80099215  0.89099929  0.35546662    -0.74100
O1903       O  0.68083871  0.73059380  0.38063133    -0.74900
O1904       O  0.75332588  0.86722020  0.33520552    -0.74200
O1905       O  0.74812778  0.81976410  0.38543437    -0.74700
O1906       O  0.75319085  0.93524990  0.38088999    -0.74600
O1907       O  0.66702820  0.92363476  0.38359518    -0.74400
C1908       C  0.54767012  0.76058255  0.38874022     0.77400
C1909       C  0.59548129  0.68656546  0.34098996     0.77900
C1910       C  0.59596927  0.89190045  0.34079601     0.76800
C1911       C  0.80056443  0.89016552  0.34209865     0.77200
C1912       C  0.72164927  0.76633909  0.38824419     0.78300
C1913       C  0.71939454  0.94856407  0.38683464     0.77400
Zn1914     Zn  0.96136467  0.53000138  0.31936145     1.49700
Zn1915     Zn  0.95658008  0.90956498  0.32087348     1.49400
Zn1916     Zn  0.49213905  0.99477894  0.29914080     1.49100
Zn1917     Zn  0.58183303  0.53163942  0.31991636     1.49500
O1918       O  0.49656862  0.99182281  0.31859189    -1.83900
O1919       O  0.88254584  0.97383589  0.33304398    -0.74500
O1920       O  0.93486941  0.87105847  0.30119847    -0.74300
O1921       O  0.93177102  0.47961871  0.28773146    -0.73800
O1922       O  0.88047907  0.88936985  0.33124560    -0.74500
O1923       O  0.95091723  0.55647221  0.30029084    -0.74100
O1924       O  0.00855043  0.93932613  0.28982059    -0.74700
O1925       O  0.62932750  0.55909857  0.30149292    -0.74100
O1926       O  0.51457136  0.89087850  0.33066878    -0.74900
O1927       O  0.56086293  0.52813999  0.28567420    -0.74200
O1928       O  0.59813814  0.97419986  0.32986258    -0.74700
O1929       O  0.59812631  0.60670217  0.33043867    -0.74600
O1930       O  0.51508228  0.60524647  0.33036782    -0.74400
C1931       C  0.85709305  0.91900393  0.33483141     0.77400
C1932       C  0.96470804  0.88991383  0.28997076     0.77900
C1933       C  0.93721380  0.52917993  0.28865411     0.76800
C1934       C  0.61292747  0.55547867  0.28878062     0.77200
C1935       C  0.56851572  0.92023530  0.33303897     0.78300
C1936       C  0.56832782  0.63041420  0.33328531     0.77400
C1937       C  0.67487825  0.84782472  0.82014718     0.45700
H1938       H  0.67439984  0.84388129  0.83179203    -0.03300
C1939       C  0.67506954  0.85644291  0.79312481     0.45800
H1940       H  0.67549457  0.86062408  0.78147644    -0.03300
C1941       C  0.64635587  0.88097243  0.81506726    -0.17000
C1942       C  0.73472901  0.87878229  0.81375013    -0.16800
C1943       C  0.64402187  0.78975592  0.81256020    -0.17100
C1944       C  0.64617488  0.88516161  0.80074959    -0.17100
C1945       C  0.73462473  0.88351087  0.79939650    -0.16700
C1946       C  0.64456018  0.79415335  0.79819382    -0.17000
C1947       C  0.00635358  0.01674070  0.87135424     0.45700
H1948       H  0.00690123  0.01419456  0.85969761    -0.03300
C1949       C  0.00364263  0.02176132  0.89827675     0.45800
H1950       H  0.00083831  0.02466174  0.90986178    -0.03300
C1951       C  0.53196546  0.58446011  0.87727313    -0.17000
C1952       C  0.94671345  0.97901831  0.87753095    -0.16800
C1953       C  0.54349703  0.99639388  0.87856517    -0.17100
C1954       C  0.52880913  0.58587597  0.89153889    -0.17100
C1955       C  0.94558696  0.97967610  0.89190690    -0.16700
C1956       C  0.54342408  0.00046032  0.89302226    -0.17000
C1957       C  0.67505181  0.84471527  0.55958862     0.45700
H1958       H  0.67598002  0.84765232  0.57128006    -0.03300
C1959       C  0.67351807  0.83776725  0.53257672     0.45800
H1960       H  0.67304354  0.83484497  0.52093844    -0.03300
C1961       C  0.70038587  0.90308079  0.55237994    -0.17000
C1962       C  0.70796893  0.81690096  0.55386273    -0.16800
C1963       C  0.61529572  0.80951680  0.55370214    -0.17100
C1964       C  0.70023358  0.89999499  0.53795297    -0.17100
C1965       C  0.70762443  0.81357251  0.53952050    -0.16700
C1966       C  0.61386023  0.80522865  0.53934967    -0.17000
C1967       C  0.84263140  0.67773680  0.45487810     0.45700
H1968       H  0.84513861  0.68054192  0.44320039    -0.03300
C1969       C  0.83759608  0.67342333  0.48191784     0.45800
H1970       H  0.83502251  0.67118684  0.49357667    -0.03300
C1971       C  0.81433295  0.61614209  0.46053234    -0.17000
C1972       C  0.90098304  0.70984242  0.46178220    -0.16800
C1973       C  0.80824410  0.70319123  0.46119724    -0.17100
C1974       C  0.81090672  0.61375010  0.47494439    -0.17100
C1975       C  0.89871037  0.70715460  0.47617263    -0.16700
C1976       C  0.80656223  0.70197563  0.47555527    -0.17000
Zn1977     Zn  0.75723444  0.62473183  0.64404715     1.49700
Zn1978     Zn  0.87184439  0.74876024  0.64416306     1.49400
Zn1979     Zn  0.83542433  0.66852496  0.67219569     1.49100
Zn1980     Zn  0.87995157  0.63412326  0.64401619     1.49500
O1981       O  0.83578519  0.66891486  0.65154789    -1.83900
O1982       O  0.74203305  0.67383506  0.63120669    -0.74500
O1983       O  0.90325993  0.81042858  0.65888362    -0.74300
O1984       O  0.74598439  0.62455219  0.67878590    -0.73800
O1985       O  0.82072229  0.75943159  0.63100960    -0.74500
O1986       O  0.69493848  0.59256120  0.65914818    -0.74100
O1987       O  0.88215500  0.75851002  0.67853748    -0.74700
O1988       O  0.91202798  0.60452610  0.65870851    -0.74100
O1989       O  0.93583581  0.76611965  0.63121907    -0.74900
O1990       O  0.87898194  0.62284434  0.67842201    -0.74200
O1991       O  0.94093348  0.68653122  0.63047596    -0.74700
O1992       O  0.83369920  0.56972439  0.63108246    -0.74600
O1993       O  0.74952186  0.56392006  0.63015946    -0.74400
C1994       C  0.77143712  0.72448847  0.62633907     0.77400
C1995       C  0.90540915  0.80784575  0.67216791     0.77900
C1996       C  0.69711705  0.59737012  0.67251135     0.76800
C1997       C  0.90663472  0.60157373  0.67201842     0.77200
C1998       C  0.95629937  0.73679825  0.62606035     0.78300
C1999       C  0.78493443  0.54967504  0.62562620     0.77400
Zn2000     Zn  0.50267417  0.50357147  0.68014619     1.49700
Zn2001     Zn  0.57988643  0.54567928  0.70915046     1.49400
Zn2002     Zn  0.96057399  0.54188445  0.70813475     1.49100
Zn2003     Zn  0.96515301  0.92372425  0.70796281     1.49500
O2004       O  0.50207477  0.50429354  0.70080371    -1.83900
O2005       O  0.59272279  0.54715174  0.67423794    -0.74500
O2006       O  0.59235971  0.61271566  0.72138937    -0.74300
O2007       O  0.92858946  0.57094396  0.69336713    -0.73800
O2008       O  0.64307864  0.57280212  0.69413223    -0.74500
O2009       O  0.95981347  0.55013000  0.67368890    -0.74100
O2010       O  0.50838222  0.60731172  0.72082397    -0.74700
O2011       O  0.90014095  0.90747618  0.72036956    -0.74100
O2012       O  0.58703738  0.99689376  0.72488961    -0.74900
O2013       O  0.90247181  0.99073161  0.72201847    -0.74200
O2014       O  0.51045566  0.91081954  0.72211364    -0.74700
O2015       O  0.93576730  0.86132805  0.69346429    -0.74600
O2016       O  0.96002279  0.91309187  0.67379210    -0.74400
C2017       C  0.64130108  0.57094177  0.68069767     0.77400
C2018       C  0.55812875  0.62865939  0.72578510     0.77900
C2019       C  0.93312889  0.57262429  0.68004277     0.76800
C2020       C  0.88424873  0.93952881  0.72620214     0.77200
C2021       C  0.55415083  0.94554101  0.72905989     0.78300
C2022       C  0.93549008  0.86377421  0.68015996     0.77400
C2023       C  0.85999375  0.67563903  0.22426538     0.45700
H2024       H  0.86320740  0.67748430  0.23588656    -0.03300
C2025       C  0.85477367  0.67098971  0.19723986     0.45800
H2026       H  0.85420881  0.66982076  0.18556531    -0.03300
C2027       C  0.79852927  0.64812208  0.21877437    -0.17000
C2028       C  0.89266621  0.73479697  0.21741570    -0.16800
C2029       C  0.88502022  0.64096706  0.21780432    -0.17100
C2030       C  0.79570509  0.64476517  0.20425059    -0.17100
C2031       C  0.88910316  0.73268498  0.20304855    -0.16700
C2032       C  0.88203581  0.63834000  0.20349851    -0.17000
C2033       C  0.50222663  0.47822412  0.14985000     0.45700
H2034       H  0.00033644  0.48072509  0.16149470    -0.03300
C2035       C  0.50418262  0.47057322  0.12281233     0.45800
H2036       H  0.50487585  0.46719040  0.11118628    -0.03300
C2037       C  0.96353160  0.95330916  0.14068772    -0.17000
C2038       C  0.97024497  0.50356136  0.14220065    -0.16800
C2039       C  0.56284388  0.51007037  0.14365692    -0.17100
C2040       C  0.95641952  0.95114597  0.12646269    -0.17100
C2041       C  0.97034563  0.49881513  0.12782748    -0.16700
C2042       C  0.56369928  0.50633168  0.12922112    -0.17000
Zn2043     Zn  0.65711527  0.81960100  0.96953947     1.49700
Zn2044     Zn  0.63296089  0.75079493  0.99430119     1.49400
Zn2045     Zn  0.75192554  0.87004111  0.99132717     1.49100
Zn2046     Zn  0.63386103  0.87455992  0.99304879     1.49500
O2047       O  0.67124608  0.83121342  0.98882029    -1.83900
O2048       O  0.58037045  0.75371994  0.96657238    -0.74500
O2049       O  0.68925505  0.73481857  0.00498430    -0.74300
O2050       O  0.78818479  0.88060572  0.97184677    -0.73800
O2051       O  0.61084560  0.70109167  0.97633529    -0.74500
O2052       O  0.71623416  0.81150218  0.95973426    -0.74100
O2053       O  0.77221540  0.81680122  0.00244159    -0.74700
O2054       O  0.69204574  0.94705742  0.00323667    -0.74100
O2055       O  0.56078423  0.73602807  0.00490802    -0.74900
O2056       O  0.77495765  0.94854307  0.00092021    -0.74200
O2057       O  0.56099673  0.81962559  0.00398238    -0.74700
O2058       O  0.61271901  0.90425329  0.97533259    -0.74600
O2059       O  0.65915456  0.88247495  0.95969797    -0.74400
C2060       C  0.58690932  0.71065632  0.96607834     0.75900
C2061       C  0.74326807  0.76457593  0.00672654     0.77900
C2062       C  0.76821520  0.85023945  0.96071620     0.76800
C2063       C  0.74607833  0.97217380  0.00484799     0.77200
C2064       C  0.53741153  0.76640060  0.00748667     0.78300
C2065       C  0.63094906  0.90642152  0.96281639     0.77400
Zn2066     Zn  0.84817317  0.67753263  0.05187971     1.49700
Zn2067     Zn  0.88251470  0.62781320  0.02777240     1.49400
Zn2068     Zn  0.76464458  0.63027538  0.02795317     1.49100
Zn2069     Zn  0.88264558  0.75193631  0.02697380     1.49500
O2070       O  0.84435539  0.67084408  0.03208044    -1.83900
O2071       O  0.84947324  0.61471594  0.06137458    -0.74500
O2072       O  0.82871282  0.55713262  0.01582009    -0.74300
O2073       O  0.72330659  0.60510575  0.04674879    -0.73800
O2074       O  0.89833795  0.59491109  0.04585399    -0.74500
O2075       O  0.78156251  0.67846421  0.06012590    -0.74100
O2076       O  0.74641531  0.55697213  0.01689537    -0.74700
O2077       O  0.82686809  0.76758922  0.01578545    -0.74100
O2078       O  0.95755888  0.68543891  0.01798546    -0.74900
O2079       O  0.74398899  0.68509429  0.01780799    -0.74200
O2080       O  0.95643471  0.76829945  0.01675310    -0.74700
O2081       O  0.90464970  0.80308128  0.04480245    -0.74600
O2082       O  0.91923634  0.74441933  0.05780667    -0.74400
C2083       C  0.87832985  0.59127281  0.05826488     0.77400
C2084       C  0.77543852  0.53342649  0.01317262     0.77900
C2085       C  0.73557211  0.63101856  0.05860166     0.76800
C2086       C  0.77297881  0.73768528  0.01379591     0.77200
C2087       C  0.98082218  0.73864283  0.01448684     0.78300
C2088       C  0.92310064  0.79257701  0.05601780     0.77400
C2089       C  0.93526869  0.90073889  0.11722259    -0.05000
C2090       C  0.87991021  0.87682557  0.11197390    -0.04900
C2091       C  0.86700733  0.85234177  0.09857018    -0.23100
C2092       C  0.90966799  0.85214577  0.09023472     0.19100
C2093       C  0.96434187  0.87203072  0.09592922     0.16300
C2094       C  0.97611014  0.89443536  0.10960466    -0.18100
C2095       C  0.00704323  0.87176160  0.08761116    -0.19900
C2096       C  0.99518374  0.85053471  0.07387481    -0.12500
C2097       C  0.94108441  0.83091375  0.06816733     0.04200
C2098       C  0.89862226  0.83231559  0.07633146    -0.24600
H2099       H  0.84804080  0.88157197  0.11772395     0.09200
H2100       H  0.82463961  0.83654755  0.09444481     0.12800
H2101       H  0.01915366  0.91372274  0.11360736     0.12800
H2102       H  0.04919216  0.88696856  0.09180679     0.12500
H2103       H  0.02746638  0.84722555  0.06787460     0.13100
H2104       H  0.85605524  0.81464054  0.07213397     0.15000
C2105       C  0.94404881  0.51942618  0.11741067    -0.05000
C2106       C  0.95049071  0.57442902  0.11855752    -0.04900
C2107       C  0.93669638  0.59817188  0.10726074    -0.23100
C2108       C  0.91742895  0.56776140  0.09455199     0.19100
C2109       C  0.90899865  0.51170555  0.09341567     0.16300
C2110       C  0.92095122  0.48742993  0.10497399    -0.18100
C2111       C  0.89101841  0.48186371  0.08055819    -0.19900
C2112       C  0.88267294  0.50802325  0.06881281    -0.12500
C2113       C  0.89093586  0.56365639  0.06991405     0.04200
C2114       C  0.90763832  0.59295786  0.08286389    -0.24600
H2115       H  0.96920493  0.60042835  0.12783711     0.09200
H2116       H  0.94340875  0.64132291  0.10825785     0.12800
H2117       H  0.85757546  0.96826453  0.11139092     0.12800
H2118       H  0.82419028  0.94409317  0.08727768     0.12500
H2119       H  0.86861994  0.48447761  0.05900088     0.13100
H2120       H  0.91380321  0.63597021  0.08375986     0.15000
C2121       C  0.61325753  0.53745242  0.11959734    -0.05000
C2122       C  0.64923916  0.59736936  0.12051431    -0.04900
C2123       C  0.68300281  0.62846546  0.10893614    -0.23100
C2124       C  0.67940259  0.60012768  0.09617487     0.19100
C2125       C  0.64527532  0.53961320  0.09553826     0.16300
C2126       C  0.61466846  0.50884740  0.10737301    -0.18100
C2127       C  0.63929753  0.51065397  0.08285025    -0.19900
C2128       C  0.66613715  0.54135770  0.07073486    -0.12500
C2129       C  0.70070904  0.60150695  0.07110711     0.04200
C2130       C  0.70780130  0.63085729  0.08395000    -0.24600
H2131       H  0.64826268  0.62050064  0.12976748     0.09200
H2132       H  0.70913614  0.67483818  0.10968883     0.12800
H2133       H  0.53893910  0.99753708  0.09914249     0.12800
H2134       H  0.55848349  0.99255104  0.07479416     0.12500
H2135       H  0.66127334  0.51753902  0.06112441     0.13100
H2136       H  0.73508765  0.67718615  0.08441076     0.15000
C2137       C  0.90780149  0.61391876  0.19422424    -0.05000
C2138       C  0.96640884  0.64578707  0.19156979    -0.04900
C2139       C  0.98956487  0.63275604  0.17996174    -0.23100
C2140       C  0.95401761  0.58813001  0.17082282     0.19100
C2141       C  0.89510276  0.55444707  0.17374609     0.16300
C2142       C  0.87258942  0.56706509  0.18561726    -0.18100
C2143       C  0.85988385  0.50925052  0.16465901    -0.19900
C2144       C  0.88354651  0.49556502  0.15321780    -0.12500
C2145       C  0.94218948  0.52802995  0.15059445     0.04200
C2146       C  0.97667250  0.57564198  0.15901460    -0.24600
H2147       H  0.99367462  0.68274917  0.19803556     0.09200
H2148       H  0.03487067  0.65843587  0.17791837     0.12800
H2149       H  0.82754915  0.54164870  0.18795302     0.12800
H2150       H  0.81457171  0.48321625  0.16671417     0.12500
H2151       H  0.85689486  0.45780605  0.14695260     0.13100
H2152       H  0.52185899  0.60093334  0.15677236     0.15000
C2153       C  0.91152395  0.78212726  0.19337871    -0.05000
C2154       C  0.96860734  0.82619096  0.19374102    -0.04900
C2155       C  0.99078475  0.86759254  0.18311187    -0.23100
C2156       C  0.95624610  0.86486437  0.17191417     0.19100
C2157       C  0.89844388  0.82104203  0.17161715     0.16300
C2158       C  0.87643132  0.78048833  0.18242518    -0.18100
C2159       C  0.86373013  0.81834366  0.16047998    -0.19900
C2160       C  0.88583320  0.85964587  0.14986326    -0.12500
C2161       C  0.94301025  0.90359245  0.15016110     0.04200
C2162       C  0.97823559  0.90556779  0.16110419    -0.24600
H2163       H  0.99674617  0.82726108  0.20184007     0.09200
H2164       H  0.03519145  0.90100178  0.18348365     0.12800
H2165       H  0.83211426  0.74655389  0.18213885     0.12800
H2166       H  0.81922164  0.78510875  0.16015993     0.12500
H2167       H  0.85754427  0.85886150  0.14182426     0.13100
H2168       H  0.02233127  0.93997810  0.16141416     0.15000
C2169       C  0.74421487  0.61990541  0.19519233    -0.05000
C2170       C  0.69989811  0.63153859  0.19745333    -0.04900
C2171       C  0.65583005  0.61339620  0.18763518    -0.23100
C2172       C  0.65608340  0.58428794  0.17531194     0.19100
C2173       C  0.70057841  0.57273761  0.17297137     0.16300
C2174       C  0.74357988  0.58993041  0.18294962    -0.18100
C2175       C  0.70175945  0.54447351  0.16063277    -0.19900
C2176       C  0.65852001  0.52690702  0.15071872    -0.12500
C2177       C  0.61324356  0.53699663  0.15301137     0.04200
C2178       C  0.61254404  0.56600689  0.16534597    -0.24600
H2179       H  0.70018720  0.65597960  0.20655630     0.09200
H2180       H  0.62210800  0.62297662  0.18955421     0.12800
H2181       H  0.77738068  0.58109808  0.18092019     0.12800
H2182       H  0.73574407  0.53524696  0.15874224     0.12500
H2183       H  0.65920443  0.50320574  0.14155453     0.13100
H2184       H  0.57752138  0.57330378  0.16740476     0.15000
C2185       C  0.72267575  0.95354704  0.56162596    -0.05000
C2186       C  0.68482701  0.97125002  0.56637650    -0.04900
C2187       C  0.68965090  0.99361338  0.57991332    -0.23100
C2188       C  0.73096751  0.99623308  0.58908976     0.19100
C2189       C  0.77054925  0.98062536  0.58417520     0.16300
C2190       C  0.76766598  0.96196394  0.57029883    -0.18100
C2191       C  0.81026328  0.98061451  0.59343699    -0.19900
C2192       C  0.81131739  0.49770921  0.60805335    -0.12500
C2193       C  0.77340586  0.51593983  0.61251695     0.04200
C2194       C  0.73231040  0.51263124  0.60307883    -0.24600
H2195       H  0.64763849  0.96176613  0.56027680     0.09200
H2196       H  0.65859414  0.00487618  0.58352528     0.12800
H2197       H  0.79545813  0.94602209  0.56689482     0.12800
H2198       H  0.84021367  0.96773308  0.58988449     0.12500
H2199       H  0.84389749  0.50047913  0.61503157     0.13100
H2200       H  0.70339470  0.52732517  0.60627615     0.15000
C2201       C  0.56770509  0.78420529  0.56373898    -0.05000
C2202       C  0.53906912  0.72487862  0.56627777    -0.04900
C2203       C  0.51207096  0.70339975  0.57923986    -0.23100
C2204       C  0.51469748  0.74132106  0.58981939     0.19100
C2205       C  0.54177778  0.80090521  0.58700796     0.16300
C2206       C  0.56608071  0.82143457  0.57382978    -0.18100
C2207       C  0.04628457  0.83934419  0.59758947    -0.19900
C2208       C  0.02199090  0.81869428  0.61076631    -0.12500
C2209       C  0.99316910  0.75936664  0.61356506     0.04200
C2210       C  0.49080213  0.72095676  0.60313604    -0.24600
H2211       H  0.54165728  0.69595853  0.55873493     0.09200
H2212       H  0.49164745  0.65756320  0.58124155     0.12800
H2213       H  0.58895493  0.86733739  0.57189877     0.12800
H2214       H  0.06788655  0.88526234  0.59561198     0.12500
H2215       H  0.02396004  0.84890598  0.61862917     0.13100
H2216       H  0.46785962  0.67498102  0.60513718     0.15000
C2217       C  0.75040736  0.73981014  0.61380665    -0.05000
C2218       C  0.69225178  0.70861882  0.61052662    -0.04900
C2219       C  0.67341852  0.71343834  0.59728876    -0.23100
C2220       C  0.71255445  0.74916664  0.58707123     0.19100
C2221       C  0.77101657  0.78195610  0.59032543     0.16300
C2222       C  0.78953361  0.77751844  0.60374053    -0.18100
C2223       C  0.80977277  0.81856706  0.58009121    -0.19900
C2224       C  0.79017833  0.82521110  0.56706288    -0.12500
C2225       C  0.73197048  0.79406772  0.56401044     0.04200
C2226       C  0.69380443  0.75434249  0.57382646    -0.24600
H2227       H  0.66151433  0.67894513  0.61806600     0.09200
H2228       H  0.62836537  0.68858031  0.59497047     0.12800
H2229       H  0.83462468  0.80106333  0.60607403     0.12800
H2230       H  0.85474471  0.84412027  0.58241737     0.12500
H2231       H  0.81974450  0.85778942  0.55985601     0.13100
H2232       H  0.64855277  0.73153162  0.57161509     0.15000
C2233       C  0.72113566  0.94805153  0.52777908    -0.05000
C2234       C  0.70702198  0.99125682  0.52928524    -0.04900
C2235       C  0.71687022  0.02938271  0.51829723    -0.23100
C2236       C  0.74036131  0.02433359  0.50556721     0.19100
C2237       C  0.76499246  0.48337987  0.50567632     0.16300
C2238       C  0.74723792  0.94480684  0.51520810    -0.18100
C2239       C  0.79447279  0.48288120  0.49351251    -0.19900
C2240       C  0.80560100  0.52234771  0.48268825    -0.12500
C2241       C  0.78681622  0.56210394  0.48390180     0.04200
C2242       C  0.75450530  0.56026309  0.49567786    -0.24600
H2243       H  0.68556314  0.99392931  0.53857059     0.09200
H2244       H  0.70496373  0.06195293  0.51964118     0.12800
H2245       H  0.75915375  0.91216340  0.51398031     0.12800
H2246       H  0.81028623  0.45319755  0.49256373     0.12500
H2247       H  0.83157360  0.52404816  0.47380205     0.13100
H2248       H  0.73981351  0.59085594  0.49662141     0.15000
C2249       C  0.56262169  0.77940527  0.53047317    -0.05000
C2250       C  0.51748589  0.78927814  0.53329942    -0.04900
C2251       C  0.47659901  0.77760610  0.52304598    -0.23100
C2252       C  0.48137617  0.75738625  0.50976509     0.19100
C2253       C  0.02536136  0.74527924  0.50707449     0.16300
C2254       C  0.56455788  0.75477132  0.51758404    -0.18100
C2255       C  0.03053919  0.72556904  0.49377473    -0.19900
C2256       C  0.99149202  0.71672285  0.48325386    -0.12500
C2257       C  0.94714125  0.72790927  0.48589431     0.04200
C2258       C  0.94304898  0.74925084  0.49911110    -0.24600
H2259       H  0.51570260  0.80941304  0.54302433     0.09200
H2260       H  0.44277531  0.78673456  0.52527493     0.12800
H2261       H  0.59863306  0.74613840  0.51537791     0.12800
H2262       H  0.06422825  0.71616397  0.49158671     0.12500
H2263       H  0.99437425  0.69841065  0.47335674     0.13100
H2264       H  0.90905449  0.75810746  0.50125562     0.15000
C2265       C  0.73762078  0.79277282  0.53058728    -0.05000
C2266       C  0.79502078  0.83052885  0.52734433    -0.04900
C2267       C  0.81931691  0.82209134  0.51523302    -0.23100
C2268       C  0.78599888  0.77638850  0.50609881     0.19100
C2269       C  0.72846914  0.73728631  0.50952760     0.16300
C2270       C  0.70499027  0.74528594  0.52188995    -0.18100
C2271       C  0.69511585  0.69163484  0.50037360    -0.19900
C2272       C  0.71926063  0.68360480  0.48816896    -0.12500
C2273       C  0.77659795  0.72145785  0.48491712     0.04200
C2274       C  0.80944506  0.76850716  0.49371751    -0.24600
H2275       H  0.81981907  0.86884281  0.53361243     0.09200
H2276       H  0.86343678  0.85247423  0.51273576     0.12800
H2277       H  0.66032750  0.71684790  0.52430230     0.12800
H2278       H  0.65102534  0.66126932  0.50286941     0.12500
H2279       H  0.69429513  0.64576190  0.48174665     0.13100
H2280       H  0.85414345  0.79685790  0.49132318     0.15000
C2281       C  0.80428930  0.86291068  0.94824607    -0.05000
C2282       C  0.85947709  0.87196056  0.94932160    -0.04900
C2283       C  0.89464732  0.88783341  0.93747591    -0.23100
C2284       C  0.87581767  0.89763920  0.92464922     0.19100
C2285       C  0.82039336  0.88915672  0.92350201     0.16300
C2286       C  0.78423958  0.86994620  0.93524688    -0.18100
C2287       C  0.80359362  0.90345109  0.91091749    -0.19900
C2288       C  0.84667761  0.43933175  0.90011148    -0.12500
C2289       C  0.89861194  0.94033365  0.90133479     0.04200
C2290       C  0.91307346  0.91995982  0.91327734    -0.24600
H2291       H  0.87525286  0.86690380  0.95931753     0.09200
H2292       H  0.93749010  0.89509358  0.93849762     0.12800
H2293       H  0.74179437  0.86403821  0.93453725     0.12800
H2294       H  0.76555307  0.40881783  0.91029194     0.12500
H2295       H  0.83525149  0.45580251  0.89111417     0.13100
H2296       H  0.95548075  0.92592973  0.91424273     0.15000
C2297       C  0.61774034  0.93342209  0.95119652    -0.05000
C2298       C  0.61299580  0.98239831  0.95318745    -0.04900
C2299       C  0.60334028  0.00827101  0.94165905    -0.23100
C2300       C  0.59683322  0.98439570  0.92813349     0.19100
C2301       C  0.59969561  0.93408145  0.92612909     0.16300
C2302       C  0.61119833  0.90954551  0.93762315    -0.18100
C2303       C  0.58933221  0.90826540  0.91276755    -0.19900
C2304       C  0.57366639  0.93097446  0.90159549    -0.12500
C2305       C  0.57093938  0.98135612  0.90347665     0.04200
C2306       C  0.58508764  0.00874164  0.91670056    -0.24600
H2307       H  0.61787859  0.00117429  0.96354707     0.09200
H2308       H  0.59997302  0.04625415  0.94335589     0.12800
H2309       H  0.61381499  0.87100371  0.93606421     0.12800
H2310       H  0.59061823  0.86906987  0.91114584     0.12500
H2311       H  0.56097961  0.90735829  0.89179788     0.13100
H2312       H  0.08367007  0.04756477  0.91848790     0.15000
C2313       C  0.57998421  0.68276842  0.95235244    -0.05000
C2314       C  0.62233268  0.67133407  0.94766041    -0.04900
C2315       C  0.62775876  0.66262908  0.93339316    -0.23100
C2316       C  0.58933021  0.66272865  0.92368490     0.19100
C2317       C  0.54489371  0.67157011  0.92836747     0.16300
C2318       C  0.54099624  0.68244619  0.94265153    -0.18100
C2319       C  0.50442178  0.66793684  0.91871579    -0.19900
C2320       C  0.50409409  0.64852349  0.90502151    -0.12500
C2321       C  0.54614189  0.63609333  0.90065956     0.04200
C2322       C  0.59199236  0.64957160  0.90954533    -0.24600
H2323       H  0.65382834  0.67317931  0.95487724     0.09200
H2324       H  0.66168858  0.65532855  0.92997543     0.12800
H2325       H  0.50871826  0.69206665  0.94618160     0.12800
H2326       H  0.47022302  0.67488082  0.92208702     0.12500
H2327       H  0.96759804  0.63705484  0.89843098     0.13100
H2328       H  0.62458765  0.64021528  0.90608338     0.15000
C2329       C  0.85072859  0.91921558  0.73933981    -0.05000
C2330       C  0.82767055  0.86158457  0.74356723    -0.04900
C2331       C  0.80714761  0.84471184  0.75724257    -0.23100
C2332       C  0.80948561  0.88520908  0.76694514     0.19100
C2333       C  0.83177163  0.94301707  0.76276371     0.16300
C2334       C  0.85187469  0.95953125  0.74899113    -0.18100
C2335       C  0.83250624  0.98310869  0.77235894    -0.19900
C2336       C  0.80711225  0.96509946  0.78557958    -0.12500
C2337       C  0.78312944  0.90742136  0.78962532     0.04200
C2338       C  0.78698831  0.86828092  0.78051583    -0.24600
H2339       H  0.82721388  0.82986021  0.73642338     0.09200
H2340       H  0.78972952  0.80008081  0.76024728     0.12800
H2341       H  0.87050798  0.00434037  0.74597638     0.12800
H2342       H  0.84913902  0.02754226  0.76929080     0.12500
H2343       H  0.80128586  0.99501640  0.79202530     0.13100
H2344       H  0.76649624  0.82325127  0.78341396     0.15000
C2345       C  0.62335626  0.91442828  0.79233006    -0.05000
C2346       C  0.66140756  0.97045353  0.78771024    -0.04900
C2347       C  0.65354368  0.98947094  0.77471855    -0.23100
C2348       C  0.60872055  0.95163695  0.76599348     0.19100
C2349       C  0.56814956  0.89656858  0.77107423     0.16300
C2350       C  0.57441991  0.87948123  0.78450425    -0.18100
C2351       C  0.52455572  0.85786318  0.76225631    -0.19900
C2352       C  0.52195008  0.87294783  0.74838857    -0.12500
C2353       C  0.56238874  0.92741274  0.74310287     0.04200
C2354       C  0.60523099  0.96697749  0.75210177    -0.24600
H2355       H  0.70020557  0.99735333  0.79348153     0.09200
H2356       H  0.68493547  0.03187309  0.77103735     0.12800
H2357       H  0.54499852  0.83625706  0.78815137     0.12800
H2358       H  0.49314907  0.81545646  0.76598961     0.12500
H2359       H  0.48748934  0.84211044  0.74187117     0.13100
H2360       H  0.63585478  0.00951793  0.74832230     0.15000
C2361       C  0.62366020  0.74772281  0.78761883    -0.05000
C2362       C  0.65404044  0.71913479  0.78502278    -0.04900
C2363       C  0.64794906  0.69051559  0.77226176    -0.23100
C2364       C  0.61273037  0.69172791  0.76172634     0.19100
C2365       C  0.58130288  0.71960103  0.76437317     0.16300
C2366       C  0.58617488  0.74627268  0.77737004    -0.18100
C2367       C  0.54705741  0.72215239  0.75380682    -0.19900
C2368       C  0.54274610  0.69597198  0.74081571    -0.12500
C2369       C  0.57285750  0.66707094  0.73811338     0.04200
C2370       C  0.60858707  0.66589439  0.74857934    -0.24600
H2371       H  0.68594321  0.72280013  0.79230118     0.09200
H2372       H  0.67286510  0.66991840  0.77037752     0.12800
H2373       H  0.56390654  0.76960917  0.77911893     0.12800
H2374       H  0.52301285  0.74375403  0.75564748     0.12500
H2375       H  0.51437111  0.69673500  0.73300301     0.13100
H2376       H  0.63100377  0.64262597  0.74674592     0.15000
C2377       C  0.57107082  0.97214504  0.86968191    -0.05000
C2378       C  0.62960206  0.99238790  0.87038917    -0.04900
C2379       C  0.65632221  0.97793930  0.85978956    -0.23100
C2380       C  0.62498953  0.94497755  0.84816952     0.19100
C2381       C  0.56587406  0.92386131  0.84759043     0.16300
C2382       C  0.53917719  0.93577228  0.85858843    -0.18100
C2383       C  0.53459694  0.89280670  0.83580335    -0.19900
C2384       C  0.56172236  0.88224522  0.82464928    -0.12500
C2385       C  0.62009344  0.90189466  0.82527496     0.04200
C2386       C  0.65161386  0.93314254  0.83704697    -0.24600
H2387       H  0.65486951  0.02123780  0.87875359     0.09200
H2388       H  0.70172187  0.99448813  0.86036282     0.12800
H2389       H  0.49377497  0.91961467  0.85807663     0.12800
H2390       H  0.48924441  0.87661753  0.83523844     0.12500
H2391       H  0.53671592  0.85649734  0.81584298     0.13100
H2392       H  0.69664834  0.94750813  0.83758031     0.15000
C2393       C  0.78438367  0.90320401  0.82308069    -0.05000
C2394       C  0.82118311  0.96280582  0.82327018    -0.04900
C2395       C  0.85840647  0.98872294  0.83441325    -0.23100
C2396       C  0.85906956  0.95535957  0.84557442     0.19100
C2397       C  0.82360570  0.89494582  0.84534659     0.16300
C2398       C  0.78636757  0.86917821  0.83403241    -0.18100
C2399       C  0.82547228  0.86202118  0.85657268    -0.19900
C2400       C  0.86333472  0.88891595  0.86772502    -0.12500
C2401       C  0.89847596  0.94894467  0.86784559     0.04200
C2402       C  0.89502807  0.98171625  0.85691975    -0.24600
H2403       H  0.81833826  0.98989162  0.81535945     0.09200
H2404       H  0.88550339  0.03517465  0.83452091     0.12800
H2405       H  0.75696442  0.82307244  0.83404712     0.12800
H2406       H  0.79865433  0.81556354  0.85655465     0.12500
H2407       H  0.86667923  0.86298860  0.87592575     0.13100
H2408       H  0.92250391  0.02818528  0.85698806     0.15000
C2409       C  0.55232442  0.63295349  0.86747318    -0.05000
C2410       C  0.52261841  0.66262887  0.86590391    -0.04900
C2411       C  0.53124350  0.69598040  0.85390322    -0.23100
C2412       C  0.56902681  0.69906769  0.84331824     0.19100
C2413       C  0.60015327  0.67050486  0.84511419     0.16300
C2414       C  0.59219657  0.63845826  0.85726259    -0.18100
C2415       C  0.63856024  0.67410151  0.83470292    -0.19900
C2416       C  0.64831175  0.70827050  0.82288069    -0.12500
C2417       C  0.61847170  0.73763228  0.82112632     0.04200
C2418       C  0.57763434  0.73158587  0.83116596    -0.24600
H2419       H  0.99027143  0.65709636  0.87345814     0.09200
H2420       H  0.00724739  0.71785015  0.85270319     0.12800
H2421       H  0.61449837  0.61477653  0.85842270     0.12800
H2422       H  0.66305442  0.65280905  0.83603624     0.12500
H2423       H  0.68272294  0.71571776  0.81584259     0.13100
H2424       H  0.55642895  0.75639421  0.83008653     0.15000
C2425       C  0.92275459  0.78563379  0.22661967    -0.05000
C2426       C  0.97905100  0.80378898  0.23051285    -0.04900
C2427       C  0.00046985  0.83192792  0.24334720    -0.23100
C2428       C  0.96450272  0.83852929  0.25288651     0.19100
C2429       C  0.90829890  0.82171424  0.24883870     0.16300
C2430       C  0.88919279  0.79869347  0.23540707    -0.18100
C2431       C  0.87077940  0.82418036  0.25862871    -0.19900
C2432       C  0.88833228  0.84207163  0.27240001    -0.12500
C2433       C  0.94433870  0.86001965  0.27645590     0.04200
C2434       C  0.98271853  0.85931943  0.26656680    -0.24600
H2435       H  0.00481914  0.79179205  0.22420429     0.09200
H2436       H  0.04354214  0.84410971  0.24628891     0.12800
H2437       H  0.84559151  0.78430203  0.23245111     0.12800
H2438       H  0.82745200  0.81112947  0.25571325     0.12500
H2439       H  0.85888603  0.84446839  0.27973368     0.13100
H2440       H  0.02638854  0.87434520  0.26959150     0.15000
C2441       C  0.93456578  0.55794697  0.27577924    -0.05000
C2442       C  0.95936376  0.61807980  0.27569658    -0.04900
C2443       C  0.96284482  0.64700485  0.26331385    -0.23100
C2444       C  0.94037873  0.61617809  0.25085670     0.19100
C2445       C  0.91555937  0.55571578  0.25069606     0.16300
C2446       C  0.91379886  0.52699034  0.26313512    -0.18100
C2447       C  0.89068284  0.52512467  0.23826070    -0.19900
C2448       C  0.88555492  0.55371722  0.22658311    -0.12500
C2449       C  0.90748618  0.61336639  0.22708823     0.04200
C2450       C  0.93858588  0.64462589  0.23884236    -0.24600
H2451       H  0.47718566  0.64305940  0.28518224     0.09200
H2452       H  0.48180205  0.69341009  0.26356181     0.12800
H2453       H  0.89542617  0.48068999  0.26303070     0.12800
H2454       H  0.87157823  0.47872921  0.23791823     0.12500
H2455       H  0.86069534  0.52881222  0.21767074     0.13100
H2456       H  0.95593144  0.69080836  0.23920403     0.15000
C2457       C  0.75094751  0.62676857  0.22920449    -0.05000
C2458       C  0.70060070  0.57355996  0.22769070    -0.04900
C2459       C  0.66192648  0.55021086  0.23894579    -0.23100
C2460       C  0.67452687  0.57847864  0.25204322     0.19100
C2461       C  0.72490217  0.63178744  0.25361760     0.16300
C2462       C  0.76100053  0.65640915  0.24208142    -0.18100
C2463       C  0.73969203  0.65885119  0.26683737    -0.19900
C2464       C  0.70444356  0.63322012  0.27850760    -0.12500
C2465       C  0.65331355  0.58115160  0.27698222     0.04200
C2466       C  0.63847936  0.55398707  0.26369210    -0.24600
H2467       H  0.69225538  0.54883085  0.21810588     0.09200
H2468       H  0.62355433  0.50891657  0.23760966     0.12800
H2469       H  0.79880848  0.69762669  0.24351679     0.12800
H2470       H  0.77883995  0.69950859  0.26817514     0.12500
H2471       H  0.71628912  0.65474673  0.28860547     0.13100
H2472       H  0.59922357  0.51329270  0.26247877     0.15000
C2473       C  0.74142190  0.98947956  0.39872202    -0.05000
C2474       C  0.79997282  0.02928912  0.39928597    -0.04900
C2475       C  0.83464678  0.55730332  0.41399611    -0.23100
C2476       C  0.80050941  0.54553692  0.42601554     0.19100
C2477       C  0.74137301  0.50685177  0.42532607     0.16300
C2478       C  0.70719166  0.98139949  0.41072142    -0.18100
C2479       C  0.70772531  0.49690212  0.43748845    -0.19900
C2480       C  0.73224393  0.52804149  0.44988585    -0.12500
C2481       C  0.79076583  0.56812064  0.45031170     0.04200
C2482       C  0.82464599  0.57388802  0.43856915    -0.24600
H2483       H  0.82711141  0.03601776  0.39023602     0.09200
H2484       H  0.87993844  0.58738914  0.41438310     0.12800
H2485       H  0.66205100  0.95018328  0.41045902     0.12800
H2486       H  0.66224823  0.46732208  0.43720198     0.12500
H2487       H  0.70505905  0.52395494  0.45871915     0.13100
H2488       H  0.86961186  0.60477167  0.43877482     0.15000
C2489       C  0.51686030  0.74247973  0.40233421    -0.05000
C2490       C  0.50385905  0.68923361  0.40814320    -0.04900
C2491       C  0.48806232  0.67700253  0.42223857    -0.23100
C2492       C  0.98360941  0.71717938  0.43074549     0.19100
C2493       C  0.99437304  0.77004662  0.42496689     0.16300
C2494       C  0.01112879  0.78250427  0.41079669    -0.18100
C2495       C  0.98741748  0.80898547  0.43345868    -0.19900
C2496       C  0.96467769  0.79302115  0.44704896    -0.12500
C2497       C  0.95109348  0.73916002  0.45250404     0.04200
C2498       C  0.96512707  0.70370337  0.44471675    -0.24600
H2499       H  0.50827002  0.65781151  0.40192697     0.09200
H2500       H  0.47914301  0.63594492  0.42648082     0.12800
H2501       H  0.02175443  0.82409135  0.40654436     0.12800
H2502       H  0.99560249  0.84985625  0.42925977     0.12500
H2503       H  0.95251146  0.82018117  0.45275027     0.13100
H2504       H  0.95463227  0.66213770  0.44894948     0.15000
C2505       C  0.73374751  0.74583712  0.40143078    -0.05000
C2506       C  0.71193497  0.68669021  0.40353596    -0.04900
C2507       C  0.71521518  0.66591066  0.41668410    -0.23100
C2508       C  0.74042366  0.70395802  0.42795941     0.19100
C2509       C  0.76260225  0.76354537  0.42604893     0.16300
C2510       C  0.75912616  0.78414347  0.41277907    -0.18100
C2511       C  0.78913567  0.80146936  0.43736262    -0.19900
C2512       C  0.79813672  0.78093204  0.45002558    -0.12500
C2513       C  0.77901866  0.72222184  0.45158070     0.04200
C2514       C  0.74694853  0.68364580  0.44087235    -0.24600
H2515       H  0.69136606  0.65628431  0.39505070     0.09200
H2516       H  0.69839105  0.62012127  0.41800992     0.12800
H2517       H  0.77494030  0.82968850  0.41138616     0.12800
H2518       H  0.80612341  0.84726249  0.43610571     0.12500
H2519       H  0.82412134  0.81127708  0.45808100     0.13100
H2520       H  0.73286969  0.63828079  0.44203856     0.15000
loop_ 
_geom_bond_atom_site_label_1 
_geom_bond_atom_site_label_2 
_geom_bond_distance 
_geom_bond_site_symmetry_2 
_ccdc_geom_bond_type 
Zn1           O5   1.980       .  S
Zn1           O6   2.007       .  S
Zn1          O10   2.031       .  S
Zn1          O17   2.018       .  S
Zn2           O5   1.958       .  S
Zn2           O7   1.992       .  S
Zn2           O9   1.976       .  S
Zn2          O13   1.984       .  S
Zn3           O5   1.969       .  S
Zn3           O8   2.144       .  S
Zn3          O11   2.175       .  S
Zn3          O14   2.153       .  S
Zn4           O5   1.956       .  S
Zn4          O12   1.994       .  S
Zn4          O15   1.984       .  S
Zn4          O16   1.984       .  S
O6           C18   1.271       .  A
O7           C19   1.268       .  A
O8           C20   1.292       .  A
O9           C18   1.268       .  A
O10          C20   1.276       .  A
O11          C19   1.294       .  A
O12          C21   1.270       .  A
O13          C22   1.267       .  A
O14          C21   1.293       .  A
O15          C22   1.267       .  A
O16          C23   1.269       .  A
O17          C23   1.270       .  A
C18         C599   1.473       .  S
C19          C46   1.500       .  S
C20          C45   1.496       .  S
C21          C41   1.491       .  S
C22         C615   1.468       .  S
C23         C583   1.473       .  S
Zn24       O1918   1.923   1_545  S
Zn24         O33   2.051       .  S
Zn24        O659   2.077   1_545  S
Zn24       O1300   2.089       .  S
Zn25       O1288   1.954       .  S
Zn25         O30   2.070       .  S
Zn25         O32   2.055       .  S
Zn25       O1296   2.089       .  S
Zn26         O28   1.905   1_655  S
Zn26       O1921   1.975       .  S
Zn26       O1294   1.948       .  S
Zn26        O667   1.926   1_655  S
Zn27        O658   1.929   1_445  S
Zn27         O35   2.087       .  S
Zn27         O39   2.114       .  S
Zn27        O668   2.127   1_545  S
O28       Zn1914   1.936   1_455  S
O28       Zn1285   1.954   1_455  S
O28        Zn657   1.952       .  S
O29        Zn654   2.098       .  S
O29          C41   1.285       .  A
O30          C42   1.273       .  A
O31       Zn1916   1.964       .  S
O31          C43   1.263   1_565  A
O32          C41   1.282       .  A
O33          C43   1.276       .  A
O34       Zn1286   1.948       .  S
O34          C42   1.259       .  A
O35          C44   1.279       .  A
O36       Zn1285   2.089   1_455  S
O36          C45   1.287       .  A
O37        Zn656   1.956   1_445  S
O37          C44   1.260       .  A
O38        Zn657   2.094       .  S
O38          C45   1.287       .  A
O39          C46   1.290       .  A
O40       Zn1284   2.089   1_455  S
O40          C46   1.287       .  A
C42         C543   1.476       .  S
C43         C551   1.476       .  S
C44         C575   1.464       .  S
C47          H48   1.111       .  S
C47          C53   1.537       .  S
C47          C52   1.533       .  S
C47          C51   1.531       .  S
C49          H50   1.114       .  S
C49          C55   1.526       .  S
C49          C54   1.527       .  S
C49          C56   1.530       .  S
C51          C54   1.370       .  D
C51         C495   1.473       .  S
C52          C55   1.370       .  D
C52         C503   1.477       .  S
C53          C56   1.377       .  D
C53         C527   1.479       .  S
C54         C455   1.469       .  S
C55         C447   1.465       .  S
C56         C471   1.480       .  S
C57          H58   1.111       .  S
C57          C62   1.531       .  S
C57        C1323   1.539       .  S
C57        C1951   1.526       .  S
C59          H60   1.110       .  S
C59          C65   1.538       .  S
C59        C1954   1.529       .  S
C59        C1326   1.536       .  S
C61        C1947   1.531       .  S
C61          C64   1.371       .  D
C61         C519   1.482       .  S
C62          C65   1.376       .  D
C62         C511   1.477       .  S
C63        C1317   1.539       .  S
C63          C66   1.379       .  D
C63         C487   1.480       .  S
C64        C1949   1.531       .  S
C64         C431   1.475       .  S
C65         C399   1.484       .  S
C66        C1319   1.536       .  S
C66         C415   1.490       .  S
C67          H68   1.114       .  S
C67          C73   1.524       .  S
C67          C72   1.525       .  S
C67          C71   1.523       .  S
C69          H70   1.110       .  S
C69          C75   1.533       .  S
C69          C74   1.536       .  S
C69          C76   1.539       .  S
C71          C74   1.372       .  D
C71         C295   1.467       .  S
C72          C75   1.365       .  D
C72         C335   1.468       .  S
C73          C76   1.370       .  D
C73         C311   1.467       .  S
C74         C343   1.474       .  S
C75         C375   1.463       .  S
C76         C359   1.480       .  S
C77          H78   1.112       .  S
C77          C83   1.525       .  S
C77          C82   1.526       .  S
C77          C81   1.531       .  S
C79          H80   1.110       .  S
C79          C85   1.530       .  S
C79          C84   1.544       .  S
C79          C86   1.528       .  S
C81          C84   1.378       .  D
C81         C591   1.487       .  S
C82          C85   1.367       .  D
C82         C607   1.463       .  S
C83          C86   1.360       .  D
C83         C623   1.463       .  S
C84         C351   1.475       .  S
C85         C367   1.480       .  S
C86         C383   1.457       .  S
Zn87         O91   1.990       .  S
Zn87         O92   1.998       .  S
Zn87         O96   2.031       .  S
Zn87        O103   2.010       .  S
Zn88         O91   1.985       .  S
Zn88         O93   2.014       .  S
Zn88         O95   1.992       .  S
Zn88         O99   1.978       .  S
Zn89         O91   1.961       .  S
Zn89         O94   2.192       .  S
Zn89         O97   2.191       .  S
Zn89        O100   2.180       .  S
Zn90         O91   1.988       .  S
Zn90         O98   2.029       .  S
Zn90        O101   2.010       .  S
Zn90        O102   1.978       .  S
O92         C104   1.270       .  A
O93         C105   1.271       .  A
O94         C106   1.299       .  A
O95         C104   1.269       .  A
O96         C106   1.274       .  A
O97         C105   1.300       .  A
O98         C107   1.273       .  A
O99         C108   1.267       .  A
O100        C107   1.298       .  A
O101        C108   1.271       .  A
O102        C109   1.268       .  A
O103        C109   1.272       .  A
C104        C327   1.472       .  S
C105        C132   1.515       .  S
C106        C127   1.520       .  S
C107        C129   1.513       .  S
C108        C319   1.472       .  S
C109        C303   1.474       .  S
Zn110       O114   1.966       .  S
Zn110       O115   2.178       .  S
Zn110      O1379   2.184   1_455  S
Zn110      O2016   2.178   1_445  S
Zn111       O114   1.994       .  S
Zn111       O116   2.030       .  S
Zn111       O118   2.065       .  S
Zn111       O752   2.020   1_545  S
Zn112      O1374   1.978       .  S
Zn112       O117   2.017       .  S
Zn112      O1380   1.993       .  S
Zn112       O753   2.009   1_545  S
Zn113      O2004   1.986       .  S
Zn113       O121   1.983       .  S
Zn113       O125   2.014       .  S
Zn113      O1384   1.986       .  S
O114      Zn1372   1.978   1_455  S
O114      Zn2003   1.983   1_445  S
O115        C127   1.299       .  A
O116        C128   1.274       .  A
O117        C129   1.272       .  A
O118        C127   1.279       .  A
O119      Zn1370   2.184       .  S
O119        C129   1.299       .  A
O120      Zn1372   1.993   1_455  S
O120        C128   1.269       .  A
O121        C130   1.268       .  A
O122       Zn741   2.026       .  S
O122        C131   1.273       .  A
O123       Zn742   1.989       .  S
O123        C130   1.269       .  A
O124      Zn1373   1.986   1_455  S
O124        C131   1.270       .  A
O125        C132   1.269       .  A
O126      Zn2000   2.197       .  S
O126        C132   1.299       .  A
C128        C479   1.482       .  S
C130        C439   1.474       .  S
C131        C463   1.484       .  S
C133        H134   1.111       .  S
C133        C139   1.532       .  S
C133        C138   1.535       .  S
C133        C137   1.529       .  S
C135        H136   1.112       .  S
C135        C141   1.535       .  S
C135        C140   1.530       .  S
C135        C142   1.536       .  S
C137        C140   1.368       .  D
C137        C567   1.471       .  S
C138        C141   1.383       .  D
C138        C535   1.490       .  S
C139        C142   1.370       .  D
C139        C559   1.487       .  S
C140        C279   1.481       .  S
C141        C263   1.480       .  S
C142        C247   1.464       .  S
C143       H1404   1.111       .  S
C143        C149   1.538   1_655  S
C143       C1408   1.534       .  S
C143       C2037   1.535   1_545  S
H144       C1403   1.111       .  S
C145        H146   1.110       .  S
C145        C152   1.535   1_655  S
C145       C1411   1.528       .  S
C145       C2040   1.523   1_545  S
C147       C2033   1.535       .  S
C147        C150   1.370       .  D
C147        C271   1.477       .  S
C148       C1403   1.534       .  S
C148        C151   1.371       .  D
C148        C255   1.476       .  S
C149        C152   1.375       .  D
C149        C287   1.474       .  S
C150       C2035   1.528       .  S
C150        C199   1.470       .  S
C151       C1405   1.528       .  S
C151        C215   1.472       .  S
C152        C231   1.487       .  S
Zn153       O157   1.872       .  S
Zn153       O158   1.964       .  S
Zn153       O162   1.956       .  S
Zn153       O169   1.908       .  S
Zn154       O157   1.938       .  S
Zn154       O159   2.059   1_556  S
Zn154       O161   2.071       .  S
Zn154       O165   2.060   1_556  S
Zn155       O157   1.918       .  S
Zn155       O160   2.060       .  S
Zn155       O163   2.073   1_556  S
Zn155       O166   2.082   1_556  S
Zn156       O157   1.941       .  S
Zn156       O164   2.052   1_556  S
Zn156       O167   2.061   1_556  S
Zn156       O168   2.071       .  S
O158        C170   1.258       .  A
O159        C171   1.283       .  A
O160        C172   1.281       .  A
O161        C170   1.273       .  A
O162        C172   1.268       .  A
O163        C171   1.283       .  A
O164        C173   1.283       .  A
O165        C174   1.286       .  A
O166        C173   1.286       .  A
O167        C174   1.284       .  A
O168        C175   1.276       .  A
O169        C175   1.258       .  A
C170        C423   1.472       .  S
C171        C196   1.491       .  S
C172        C391   1.466       .  S
C173        C824   1.490       .  S
C174       C1457   1.483   1_455  S
C175        C407   1.467       .  S
Zn176       O180   1.842       .  S
Zn176       O181   1.948       .  S
Zn176       O185   1.961       .  S
Zn176       O192   1.949       .  S
Zn177       O180   1.920       .  S
Zn177       O182   2.066       .  S
Zn177       O184   2.063       .  S
Zn177       O188   2.042       .  S
Zn178       O180   1.899       .  S
Zn178       O183   2.033       .  S
Zn178       O186   2.057       .  S
Zn178       O189   2.053       .  S
Zn179       O180   1.919       .  S
Zn179       O187   2.087       .  S
Zn179       O190   2.070       .  S
Zn179       O191   2.091       .  S
O181        C193   1.261       .  A
O182        C194   1.283       .  A
O183        C195   1.275       .  A
O184        C193   1.275       .  A
O185        C195   1.265       .  A
O186        C194   1.284       .  A
O187        C196   1.287       .  A
O188        C197   1.283       .  A
O189        C196   1.284       .  A
O190        C197   1.286       .  A
O191        C198   1.279       .  A
O192        C198   1.260       .  A
C193        C223   1.457       .  S
C194        C803   1.488   1_545  S
C195        C239   1.471       .  S
C197       C1434   1.483       .  S
C198        C207   1.463       .  S
C199        C200   1.402       .  A
C199        C204   1.404       .  A
C200        C201   1.397       .  A
C200        H209   1.081       .  S
C201        C202   1.402       .  A
C201        H210   1.084       .  S
C202        C208   1.401       .  A
C202        C203   1.413       .  A
C203        C205   1.404       .  A
C203        C204   1.402       .  A
C204        H211   1.084       .  S
C205        C206   1.399       .  A
C205        H212   1.083       .  S
C206        C207   1.403       .  A
C206        H213   1.083       .  S
C207        C208   1.403       .  A
C208        H214   1.085       .  S
C215        C216   1.402       .  A
C215        C220   1.404       .  A
C216        C217   1.401       .  A
C216        H225   1.083       .  S
C217        C218   1.406       .  A
C217        H226   1.084       .  S
C218        C224   1.401       .  A
C218        C219   1.412       .  A
C219        C221   1.404   1_545  A
C219        C220   1.397       .  A
C220        H857   1.081   1_545  S
C221        C222   1.395   1_565  A
C221        H858   1.084       .  S
C222        C223   1.398       .  A
C222        H229   1.084   1_545  S
C223        C224   1.405       .  A
C224        H230   1.083       .  S
H227        C850   1.082       .  S
H228        C851   1.083       .  S
C231        C232   1.404       .  A
C231        C236   1.406       .  A
C232        C233   1.404       .  A
C232        H241   1.082       .  S
C233        C234   1.407       .  A
C233        H242   1.083       .  S
C234        C240   1.401       .  A
C234        C235   1.408       .  A
C235        C237   1.401       .  A
C235        C236   1.389       .  A
C236        H873   1.074   1_545  S
C237        C238   1.390       .  A
C237        H874   1.083   1_545  S
C238        C239   1.403       .  A
C238        H245   1.084       .  S
C239        C240   1.411       .  A
C240        H246   1.084       .  S
H243        C866   1.081       .  S
H244        C867   1.083       .  S
C247        C248   1.400       .  A
C247        C252   1.402       .  A
C248        C249   1.397       .  A
C248        H257   1.084       .  S
C249        C250   1.405       .  A
C249        H258   1.083       .  S
C250        C256   1.395       .  A
C250        C251   1.409       .  A
C251        C253   1.404       .  A
C251        C252   1.395       .  A
C252        H259   1.082       .  S
C253        C254   1.398       .  A
C253        H260   1.084   1_545  S
C254        C255   1.402       .  A
C254        H261   1.084   1_545  S
C255        C256   1.405       .  A
C256       H1522   1.075       .  S
H262       C1516   1.075       .  S
C263        C264   1.405       .  A
C263        C268   1.405       .  A
C264        C265   1.400       .  A
C264        H273   1.081       .  S
C265        C266   1.403       .  A
C265        H274   1.084       .  S
C266        C272   1.408       .  A
C266        C267   1.414       .  A
C267        C269   1.402       .  A
C267        C268   1.404       .  A
C268        H275   1.085       .  S
C269        C270   1.397       .  A
C269        H276   1.084       .  S
C270        C271   1.402       .  A
C270        H277   1.080       .  S
C271        C272   1.405       .  A
C272        H278   1.085       .  S
C279        C280   1.403       .  A
C279        C284   1.408       .  A
C280        C281   1.397       .  A
C280        H289   1.082       .  S
C281        C282   1.403       .  A
C281        H290   1.084       .  S
C282        C288   1.396       .  A
C282        C283   1.410       .  A
C283        C285   1.406       .  A
C283        C284   1.399       .  A
C284        H291   1.081       .  S
C285        C286   1.400       .  A
C285        H292   1.084       .  S
C286        C287   1.401       .  A
C286        H293   1.084       .  S
C287        C288   1.402       .  A
C288        H294   1.079       .  S
C295        C296   1.403       .  A
C295        C300   1.402       .  A
C296        C297   1.396       .  A
C296        H305   1.082       .  S
C297        C298   1.401       .  A
C297        H306   1.083       .  S
C298        C299   1.413       .  A
C298        C934   1.403       .  A
C299        C301   1.400       .  A
C299        C300   1.400       .  A
C300        H307   1.085       .  S
C301        C932   1.395       .  A
C301        H308   1.083       .  S
C302        C303   1.406   1_565  A
C302        C931   1.393       .  A
C302        H309   1.083       .  S
C303        C304   1.407       .  A
C304        C928   1.402   1_545  A
C304        H310   1.084       .  S
C311        C312   1.400       .  A
C311        C316   1.400       .  A
C312        C313   1.399       .  A
C312        H321   1.083       .  S
C313        C314   1.405       .  A
C313        H322   1.084   1_455  S
C314        C320   1.401   1_455  A
C314        C315   1.412       .  A
C315        C316   1.394       .  A
C315       C1577   1.401       .  A
C316        H323   1.081       .  S
C317        C318   1.394       .  A
C317       C1575   1.401       .  A
C317        H324   1.084       .  S
C318        C319   1.406       .  A
C318        H325   1.083       .  S
C319       C1580   1.407       .  A
C320       C1579   1.407       .  A
C320        H326   1.086       .  S
C327        C328   1.403       .  A
C327        C332   1.410       .  A
C328        C329   1.393       .  A
C328        H337   1.083       .  S
C329        C330   1.400       .  A
C329        H338   1.083       .  S
C330        C336   1.395       .  A
C330        C331   1.412       .  A
C331        C333   1.406       .  A
C331        C332   1.402       .  A
C332        H339   1.084       .  S
C333        C334   1.400       .  A
C333        H340   1.083       .  S
C334        C335   1.402       .  A
C334        H341   1.082       .  S
C335        C336   1.400       .  A
C336        H342   1.084       .  S
C343        C344   1.400       .  A
C343        C348   1.407       .  A
C344        C345   1.393       .  A
C344        H353   1.076       .  S
C345        C346   1.401       .  A
C345        H354   1.083       .  S
C346        C982   1.394       .  A
C346        C977   1.411       .  A
C347        C349   1.406       .  A
C347        C976   1.409   1_565  A
C347        C978   1.400       .  A
C348        C977   1.400       .  A
C348        H355   1.084       .  S
C349        C350   1.400   1_565  A
C349        H356   1.084       .  S
C350        C351   1.401       .  A
C350        H357   1.083       .  S
C351        C352   1.405       .  A
C352        C976   1.395       .  A
C352        H358   1.083       .  S
C359        C360   1.404       .  A
C359        C364   1.404       .  A
C360        C361   1.397   1_455  A
C360        H369   1.082       .  S
C361        C362   1.403       .  A
C361        H370   1.084       .  S
C362       C1628   1.398       .  A
C362       C1623   1.410   1_655  A
C363        C365   1.402       .  A
C363       C1622   1.410       .  A
C363       C1624   1.396       .  A
C364       C1623   1.396       .  A
C364        H371   1.079       .  S
C365        C366   1.395       .  A
C365        H372   1.084       .  S
C366        C367   1.403       .  A
C366        H373   1.081       .  S
C367        C368   1.407       .  A
C368       C1622   1.398       .  A
C368        H374   1.081       .  S
C375        C376   1.401       .  A
C375        C380   1.399       .  A
C376        C377   1.396       .  A
C376        H385   1.082       .  S
C377        C378   1.403       .  A
C377        H386   1.084       .  S
C378        C384   1.395       .  A
C378        C379   1.413       .  A
C379        C381   1.403       .  A
C379        C380   1.395       .  A
C380        H387   1.082       .  S
C381        C382   1.395       .  A
C381        H388   1.084       .  S
C382        C383   1.399       .  A
C382        H389   1.084       .  S
C383        C384   1.399       .  A
C384        H390   1.083       .  S
C391        C392   1.398       .  A
C391        C396   1.410       .  A
C392        C393   1.395       .  A
C392        H401   1.083       .  S
C393        C394   1.404       .  A
C393        H402   1.084       .  S
C394        C400   1.393       .  A
C394        C395   1.410       .  A
C395        C397   1.409       .  A
C395        C396   1.403       .  A
C396        H403   1.085       .  S
C397       C1028   1.404       .  A
C397       H1034   1.084       .  S
C398       C1027   1.401       .  A
C398       C1029   1.401       .  A
C398        H405   1.082       .  S
C399        C400   1.407       .  A
C399       C1028   1.403       .  A
C400        H406   1.086       .  S
H404       C1027   1.084       .  S
C407        C408   1.399       .  A
C407        C412   1.409       .  A
C408        C409   1.398       .  A
C408        H417   1.082       .  S
C409        C410   1.407       .  A
C409        H418   1.083       .  S
C410        C416   1.395       .  A
C410        C411   1.407       .  A
C411        C413   1.405       .  A
C411        C412   1.395       .  A
C412        H419   1.085       .  S
C413        C414   1.399       .  A
C413        H420   1.083       .  S
C414        C415   1.404       .  A
C414        H421   1.081       .  S
C415        C416   1.410       .  A
C416       H1682   1.077       .  S
H422       C1676   1.077       .  S
C423        C424   1.403       .  A
C423        C428   1.408       .  A
C424        C425   1.398       .  A
C424        H433   1.083       .  S
C425        C426   1.404       .  A
C425        H434   1.083       .  S
C426        C432   1.403       .  A
C426        C427   1.411       .  A
C427        C429   1.404       .  A
C427        C428   1.403       .  A
C428        H435   1.083       .  S
C429        C430   1.400       .  A
C429        H436   1.082   1_455  S
C430        C431   1.403       .  A
C430       H1697   1.083   1_455  S
C431        C432   1.404       .  A
C432        H438   1.084       .  S
H437       C1690   1.083       .  S
C439        C440   1.406       .  A
C439        C444   1.407       .  A
C440        C441   1.394       .  A
C440        H449   1.083       .  S
C441        C442   1.400       .  A
C441        H450   1.084       .  S
C442        C448   1.397       .  A
C442        C443   1.412       .  A
C443        C445   1.402       .  A
C443        C444   1.399       .  A
C444        H451   1.086       .  S
C445        C446   1.397       .  A
C445        H452   1.085       .  S
C446        C447   1.403       .  A
C446        H453   1.082       .  S
C447        C448   1.401       .  A
C448        H454   1.083       .  S
C455        C456   1.403       .  A
C455        C460   1.399       .  A
C456        C457   1.400       .  A
C456        H465   1.083       .  S
C457        C458   1.404       .  A
C457        H466   1.083       .  S
C458        C464   1.407       .  A
C458        C459   1.414       .  A
C459        C461   1.398       .  A
C459        C460   1.401       .  A
C460        H467   1.084       .  S
C461        C462   1.394       .  A
C461        H468   1.085   1_455  S
C462        C463   1.409       .  A
C462        H469   1.082   1_455  S
C463        C464   1.410       .  A
C464        H470   1.083       .  S
C471        C472   1.404       .  A
C471        C476   1.405       .  A
C472        C473   1.400       .  A
C472        H481   1.081       .  S
C473        C474   1.403       .  A
C473        H482   1.082       .  S
C474        C480   1.406       .  A
C474        C475   1.412       .  A
C475        C477   1.402       .  A
C475        C476   1.404       .  A
C476        H483   1.080       .  S
C477        C478   1.398       .  A
C477        H484   1.084       .  S
C478        C479   1.407       .  A
C478        H485   1.083       .  S
C479        C480   1.408       .  A
C480        H486   1.083       .  S
C487        C488   1.401       .  A
C487        C492   1.407       .  A
C488        C489   1.401       .  A
C488        H497   1.083       .  S
C489        C490   1.407       .  A
C489        H498   1.083       .  S
C490        C496   1.399       .  A
C490        C491   1.410       .  A
C491        C493   1.404       .  A
C491        C492   1.394       .  A
C492        H499   1.084   1_455  S
C493        C494   1.396       .  A
C493        H500   1.083   1_455  S
C494        C495   1.400       .  A
C494        H501   1.083       .  S
C495        C496   1.407       .  A
C496        H502   1.084       .  S
C503        C504   1.402       .  A
C503        C508   1.407       .  A
C504        C505   1.395       .  A
C504        H513   1.080       .  S
C505        C506   1.403       .  A
C505        H514   1.085       .  S
C506        C512   1.395       .  A
C506        C507   1.411       .  A
C507        C509   1.406       .  A
C507        C508   1.400       .  A
C508        H515   1.086       .  S
C509        C510   1.400       .  A
C509        H516   1.084       .  S
C510        C511   1.401       .  A
C510        H517   1.083       .  S
C511        C512   1.407       .  A
C512        H518   1.086       .  S
C519        C520   1.401       .  A
C519        C524   1.409       .  A
C520        C521   1.400       .  A
C520       H1789   1.080       .  S
C521        C522   1.405       .  A
C521       H1790   1.083       .  S
C522        C528   1.399       .  A
C522        C523   1.409       .  A
C523        C525   1.404       .  A
C523        C524   1.398       .  A
C524        H531   1.084       .  S
C525        C526   1.399       .  A
C525        H532   1.083       .  S
C526        C527   1.401       .  A
C526        H533   1.077       .  S
C527        C528   1.409       .  A
C528        H534   1.084       .  S
H529       C1780   1.080       .  S
H530       C1781   1.083       .  S
C535        C536   1.403       .  A
C535        C540   1.412       .  A
C536        C537   1.395       .  A
C536        H545   1.073       .  S
C537        C538   1.400       .  A
C537        H546   1.084       .  S
C538        C544   1.398       .  A
C538        C539   1.409       .  A
C539        C541   1.406       .  A
C539        C540   1.403       .  A
C540        H547   1.082       .  S
C541        C542   1.401       .  A
C541        H548   1.084       .  S
C542        C543   1.405       .  A
C542        H549   1.083       .  S
C543        C544   1.407       .  A
C544        H550   1.085       .  S
C551        C552   1.403       .  A
C551        C556   1.414       .  A
C552        C553   1.390       .  A
C552       H1821   1.083       .  S
C553        C554   1.400       .  A
C553       H1822   1.085       .  S
C554        C560   1.390       .  A
C554        C555   1.409       .  A
C555        C557   1.410   1_545  A
C555        C556   1.406       .  A
C556        H563   1.084   1_545  S
C557        C558   1.407   1_565  A
C557        H564   1.083       .  S
C558        C559   1.404       .  A
C558        H565   1.083   1_545  S
C559        C560   1.404       .  A
C560        H566   1.083       .  S
H561       C1812   1.083       .  S
H562       C1813   1.085       .  S
C567        C568   1.403       .  A
C567        C572   1.403       .  A
C568        C569   1.399       .  A
C568        H577   1.083   1_545  S
C569        C570   1.403       .  A
C569        H578   1.084   1_545  S
C570        C576   1.403       .  A
C570        C571   1.414       .  A
C571        C573   1.403       .  A
C571        C572   1.402       .  A
C572        H579   1.085       .  S
C573        C574   1.398       .  A
C573        H580   1.084       .  S
C574        C575   1.402       .  A
C574        H581   1.083       .  S
C575        C576   1.405       .  A
C576        H582   1.084       .  S
C583        C584   1.401       .  A
C583        C588   1.412       .  A
C584       C1215   1.390       .  A
C584        H593   1.084       .  S
C585        C586   1.400       .  A
C585       C1214   1.391       .  A
C585        H594   1.084       .  S
C586        C592   1.395       .  A
C586        C587   1.411       .  A
C587        C589   1.409       .  A
C587       C1218   1.411   1_545  A
C588       C1217   1.408       .  A
C588        H595   1.084       .  S
C589        C590   1.408       .  A
C589        H596   1.083   1_545  S
C590        C591   1.405       .  A
C590        H597   1.083       .  S
C591        C592   1.403       .  A
C592        H598   1.080       .  S
C599        C600   1.405       .  A
C599       C1864   1.408       .  A
C600        C601   1.391   1_455  A
C600        H609   1.083       .  S
C601       C1862   1.398       .  A
C601        H610   1.083       .  S
C602        C608   1.396       .  A
C602        C603   1.414       .  A
C602       C1861   1.398       .  A
C603        C605   1.404       .  A
C603        C604   1.403       .  A
C604       C1859   1.408       .  A
C604        H611   1.084       .  S
C605        C606   1.399       .  A
C605        H612   1.083       .  S
C606        C607   1.402       .  A
C606        H613   1.083       .  S
C607        C608   1.397       .  A
C608        H614   1.083       .  S
C615        C616   1.403       .  A
C615        C620   1.408       .  A
C616        C617   1.392       .  A
C616        H625   1.083       .  S
C617        C618   1.401       .  A
C617        H626   1.084       .  S
C618        C624   1.391       .  A
C618        C619   1.411       .  A
C619        C621   1.406       .  A
C619        C620   1.398       .  A
C620        H627   1.084       .  S
C621        C622   1.399       .  A
C621        H628   1.083       .  S
C622        C623   1.399       .  A
C622        H629   1.084       .  S
C623        C624   1.400       .  A
C624        H630   1.084       .  S
Zn631       O635   1.983       .  S
Zn631       O636   2.013       .  S
Zn631       O640   2.034       .  S
Zn631       O647   2.028       .  S
Zn632       O635   1.963       .  S
Zn632       O637   2.005       .  S
Zn632       O639   1.991       .  S
Zn632       O643   1.998       .  S
Zn633       O635   1.978       .  S
Zn633       O638   2.167       .  S
Zn633       O641   2.160       .  S
Zn633       O644   2.155       .  S
Zn634       O635   1.963       .  S
Zn634       O642   2.007       .  S
Zn634       O645   2.012       .  S
Zn634       O646   1.988       .  S
O636        C648   1.272       .  A
O637        C649   1.270       .  A
O638        C650   1.295       .  A
O639        C648   1.270       .  A
O640        C650   1.276       .  A
O641        C649   1.293       .  A
O642        C651   1.271       .  A
O643        C652   1.270       .  A
O644        C651   1.293       .  A
O645        C652   1.270       .  A
O646        C653   1.270       .  A
O647        C653   1.271       .  A
C648       C1229   1.479       .  S
C649        C676   1.496       .  S
C650        C675   1.507       .  S
C651        C671   1.493       .  S
C652       C1245   1.477       .  S
C653       C1213   1.477       .  S
Zn654      O1288   1.936       .  S
Zn654       O663   2.026       .  S
Zn654      O1930   2.086       .  S
Zn655      O1918   1.924       .  S
Zn655       O660   2.075       .  S
Zn655       O662   2.095       .  S
Zn655      O1926   2.106       .  S
Zn656       O658   1.860       .  S
Zn656      O1291   1.964       .  S
Zn656      O1924   1.964   1_655  S
Zn657       O665   2.073       .  S
Zn657       O669   2.088       .  S
O658      Zn1284   1.923   1_565  S
O658      Zn1915   1.924       .  S
O659        C671   1.287       .  A
O660        C672   1.278       .  A
O661      Zn1286   1.975       .  S
O661        C673   1.268       .  A
O662        C671   1.288       .  A
O663        C673   1.275       .  A
O664      Zn1916   1.964       .  S
O664        C672   1.262       .  A
O665        C674   1.278       .  A
O666      Zn1915   2.106   1_455  S
O666        C675   1.290       .  A
O667        C674   1.261       .  A
O668        C675   1.292       .  A
O669        C676   1.285       .  A
O670      Zn1914   2.086   1_455  S
O670        C676   1.284       .  A
C672       C1173   1.469       .  S
C673       C1181   1.473       .  S
C674       C1205   1.472       .  S
C677        H678   1.112       .  S
C677        C683   1.531       .  S
C677        C682   1.528       .  S
C677        C681   1.528       .  S
C679        H680   1.113       .  S
C679        C685   1.527       .  S
C679        C684   1.528       .  S
C679        C686   1.526       .  S
C681        C684   1.367       .  D
C681       C1125   1.468       .  S
C682        C685   1.372       .  D
C682       C1133   1.471       .  S
C683        C686   1.371       .  D
C683       C1157   1.461       .  S
C684       C1085   1.467       .  S
C685       C1077   1.466       .  S
C686       C1101   1.475       .  S
C687        H688   1.111       .  S
C687       C1953   1.537   1_545  S
C687        C692   1.529   1_545  S
C687       C1321   1.531       .  S
C689        H690   1.109       .  S
C689        C695   1.533   1_545  S
C689       C1324   1.531       .  S
C689       C1956   1.536       .  S
C691       C1317   1.526       .  S
C691        C694   1.360       .  D
C691       C1149   1.467       .  S
C692        C695   1.368       .  D
C692       C1141   1.472       .  S
C693       C1947   1.537   1_565  S
C693        C696   1.379   1_565  D
C693       C1117   1.475       .  S
C694       C1319   1.529       .  S
C694       C1061   1.467       .  S
C695       C1029   1.478       .  S
C696       C1949   1.536       .  S
C696       C1045   1.489   1_545  S
C697        H698   1.114       .  S
C697        C703   1.520       .  S
C697        C702   1.523       .  S
C697        C701   1.524       .  S
C699        H700   1.109       .  S
C699        C705   1.530       .  S
C699        C704   1.537       .  S
C699        C706   1.540       .  S
C701        C704   1.374       .  D
C701        C925   1.467       .  S
C702        C705   1.366       .  D
C702        C965   1.468       .  S
C703        C706   1.368       .  D
C703        C941   1.466       .  S
C704        C973   1.481       .  S
C705       C1005   1.464       .  S
C706        C989   1.475       .  S
C707        H708   1.113       .  S
C707        C713   1.528       .  S
C707        C712   1.525       .  S
C707        C711   1.531       .  S
C709        H710   1.110       .  S
C709        C715   1.535       .  S
C709        C714   1.538       .  S
C709        C716   1.528       .  S
C711        C714   1.373       .  D
C711       C1221   1.479       .  S
C712        C715   1.370       .  D
C712       C1237   1.470       .  S
C713        C716   1.366       .  D
C713       C1253   1.468       .  S
C714        C981   1.474       .  S
C715        C997   1.475       .  S
C716       C1013   1.464       .  S
Zn717       O721   1.986       .  S
Zn717       O722   1.995       .  S
Zn717       O726   2.044       .  S
Zn717       O733   2.025       .  S
Zn718       O721   1.988       .  S
Zn718       O723   2.003       .  S
Zn718       O725   2.003       .  S
Zn718       O729   1.978       .  S
Zn719       O721   1.964       .  S
Zn719       O724   2.189       .  S
Zn719       O727   2.177       .  S
Zn719       O730   2.179       .  S
Zn720       O721   1.985       .  S
Zn720       O728   2.019       .  S
Zn720       O731   2.006       .  S
Zn720       O732   1.976       .  S
O722        C734   1.270       .  A
O723        C735   1.269       .  A
O724        C736   1.299       .  A
O725        C734   1.271       .  A
O726        C736   1.276       .  A
O727        C735   1.298       .  A
O728        C737   1.271       .  A
O729        C738   1.267       .  A
O730        C737   1.298       .  A
O731        C738   1.270       .  A
O732        C739   1.268       .  A
O733        C739   1.274       .  A
C734        C957   1.473       .  S
C735        C762   1.507       .  S
C736        C757   1.521       .  S
C737        C759   1.512       .  S
C738        C949   1.470       .  S
C739        C933   1.478       .  S
Zn740       O744   1.965       .  S
Zn740       O745   2.186       .  S
Zn740      O2009   2.189   1_455  S
Zn740      O1386   2.197   1_455  S
Zn741       O744   1.998       .  S
Zn741       O746   2.022       .  S
Zn741       O748   2.057       .  S
Zn742      O2004   1.977       .  S
Zn742       O747   2.014       .  S
Zn742      O2010   1.986       .  S
Zn743      O1374   1.983   1_565  S
Zn743       O751   1.975       .  S
Zn743      O2014   1.978       .  S
Zn743       O755   2.000       .  S
O744      Zn2002   1.977   1_455  S
O744      Zn1373   1.986   1_455  S
O745        C757   1.300       .  A
O746        C758   1.272       .  A
O747        C759   1.271       .  A
O748        C757   1.279       .  A
O749      Zn2000   2.189       .  S
O749        C759   1.299       .  A
O750      Zn2002   1.986   1_455  S
O750        C758   1.268       .  A
O751        C760   1.266       .  A
O752        C761   1.273       .  A
O753        C760   1.271       .  A
O754      Zn2003   1.978   1_455  S
O754        C761   1.269       .  A
O755        C762   1.268       .  A
O756      Zn1370   2.178   1_565  S
O756        C762   1.297       .  A
C758       C1109   1.477       .  S
C760       C1069   1.475       .  S
C761       C1093   1.481       .  S
C763        H764   1.108       .  S
C763        C769   1.528       .  S
C763        C768   1.524       .  S
C763        C767   1.542       .  S
C765        H766   1.111       .  S
C765        C771   1.539       .  S
C765        C770   1.539       .  S
C765        C772   1.531       .  S
C767        C770   1.384       .  D
C767       C1197   1.491       .  S
C768        C771   1.370       .  D
C768       C1165   1.476       .  S
C769        C772   1.363       .  D
C769       C1189   1.475       .  S
C770        C909   1.490       .  S
C771        C893   1.474       .  S
C772        C877   1.465       .  S
C773       H2034   1.111       .  S
C773        C779   1.538       .  S
C773       C2038   1.537   1_455  S
C773       C1407   1.535   1_455  S
H774       C2033   1.111       .  S
C775        H776   1.110       .  S
C775       C2041   1.531   1_455  S
C775       C1410   1.528   1_455  S
C775        C782   1.536       .  S
C777       C1403   1.535   1_565  S
C777        C780   1.365       .  D
C777        C901   1.471       .  S
C778       C2033   1.537       .  S
C778        C781   1.372       .  D
C778        C885   1.463       .  S
C779        C782   1.377       .  D
C779        C917   1.486       .  S
C780       C1405   1.523   1_565  S
C780        C829   1.467       .  S
C781       C2035   1.531       .  S
C781        C845   1.489       .  S
C782        C861   1.485       .  S
Zn783       O787   1.869       .  S
Zn783       O788   1.964       .  S
Zn783       O792   1.956       .  S
Zn783       O799   1.913       .  S
Zn784       O787   1.942       .  S
Zn784       O789   2.062   1_556  S
Zn784       O791   2.062       .  S
Zn784       O795   2.052   1_556  S
Zn785       O787   1.913       .  S
Zn785       O790   2.044       .  S
Zn785       O793   2.072   1_556  S
Zn785       O796   2.083   1_556  S
Zn786       O787   1.932       .  S
Zn786       O794   2.036   1_556  S
Zn786       O797   2.055   1_556  S
Zn786       O798   2.074       .  S
O788        C800   1.258       .  A
O789        C801   1.282       .  A
O790        C802   1.279       .  A
O791        C800   1.274       .  A
O792        C802   1.269       .  A
O793        C801   1.283       .  A
O794        C803   1.281       .  A
O795        C804   1.284       .  A
O796        C803   1.286       .  A
O797        C804   1.284       .  A
O798        C805   1.276       .  A
O799        C805   1.258       .  A
C800       C1053   1.468       .  S
C801        C826   1.493       .  S
C802       C1021   1.460       .  S
C804       C2087   1.483   1_455  S
C805       C1037   1.468       .  S
Zn806       O810   1.889       .  S
Zn806       O811   1.936       .  S
Zn806       O815   1.979       .  S
Zn806       O822   1.948       .  S
Zn807       O810   1.944       .  S
Zn807       O812   2.062       .  S
Zn807       O814   2.083       .  S
Zn807       O818   2.057       .  S
Zn808       O810   1.916       .  S
Zn808       O813   2.032       .  S
Zn808       O816   2.060       .  S
Zn808       O819   2.068       .  S
Zn809       O810   1.948       .  S
Zn809       O817   2.070       .  S
Zn809       O820   2.061       .  S
Zn809       O821   2.071       .  S
O811        C823   1.262       .  A
O812        C824   1.282       .  A
O813        C825   1.277       .  A
O814        C823   1.279       .  A
O815        C825   1.268       .  A
O816        C824   1.282       .  A
O817        C826   1.283       .  A
O818        C827   1.284       .  A
O819        C826   1.283       .  A
O820        C827   1.285       .  A
O821        C828   1.274       .  A
O822        C828   1.258       .  A
C823        C853   1.472       .  S
C825        C869   1.475       .  S
C827       C2064   1.483       .  S
C828        C837   1.458       .  S
C829        C830   1.401       .  A
C829        C834   1.400       .  A
C830        C831   1.396       .  A
C830        H839   1.081       .  S
C831        C832   1.402       .  A
C831        H840   1.084       .  S
C832        C838   1.400       .  A
C832        C833   1.414       .  A
C833        C835   1.402       .  A
C833        C834   1.401       .  A
C834        H841   1.085       .  S
C835        C836   1.397       .  A
C835        H842   1.084       .  S
C836        C837   1.402       .  A
C836        H843   1.083       .  S
C837        C838   1.402       .  A
C838        H844   1.085       .  S
C845        C846   1.403       .  A
C845        C850   1.411       .  A
C846        C847   1.399       .  A
C846        H855   1.082       .  S
C847        C848   1.405       .  A
C847        H856   1.084       .  S
C848        C854   1.400       .  A
C848        C849   1.410       .  A
C849        C851   1.408       .  A
C849        C850   1.403       .  A
C851        C852   1.403       .  A
C852        C853   1.400       .  A
C852        H859   1.084       .  S
C853        C854   1.408       .  A
C854        H860   1.085       .  S
C861        C862   1.405       .  A
C861        C866   1.402       .  A
C862        C863   1.405       .  A
C862        H871   1.083       .  S
C863        C864   1.407       .  A
C863        H872   1.083       .  S
C864        C870   1.408       .  A
C864        C865   1.412       .  A
C865        C867   1.398       .  A
C865        C866   1.395       .  A
C867        C868   1.390       .  A
C868        C869   1.404       .  A
C868        H875   1.083       .  S
C869        C870   1.412       .  A
C870        H876   1.084       .  S
C877        C878   1.399       .  A
C877        C882   1.401       .  A
C878        C879   1.394       .  A
C878        H887   1.084       .  S
C879        C880   1.402       .  A
C879        H888   1.083       .  S
C880        C886   1.395       .  A
C880        C881   1.414       .  A
C881        C883   1.405       .  A
C881        C882   1.399       .  A
C882        H889   1.082       .  S
C883        C884   1.398       .  A
C883        H890   1.084       .  S
C884        C885   1.400       .  A
C884        H891   1.082       .  S
C885        C886   1.398       .  A
C886       H2152   1.083       .  S
H892       C2146   1.083   1_455  S
C893        C894   1.401       .  A
C893        C898   1.404       .  A
C894        C895   1.397       .  A
C894        H903   1.080       .  S
C895        C896   1.403       .  A
C895        H904   1.084       .  S
C896        C902   1.398       .  A
C896        C897   1.413       .  A
C897        C899   1.402       .  A
C897        C898   1.396       .  A
C898        H905   1.086       .  S
C899        C900   1.394       .  A
C899        H906   1.084       .  S
C900        C901   1.402       .  A
C900        H907   1.082       .  S
C901        C902   1.403       .  A
C902        H908   1.086       .  S
C909        C910   1.404       .  A
C909        C914   1.408       .  A
C910        C911   1.404       .  A
C910        H919   1.082       .  S
C911        C912   1.408       .  A
C911        H920   1.084       .  S
C912        C918   1.403       .  A
C912        C913   1.408       .  A
C913        C915   1.404       .  A
C913        C914   1.397       .  A
C914        H921   1.074       .  S
C915        C916   1.396       .  A
C915        H922   1.084       .  S
C916        C917   1.403       .  A
C916        H923   1.083       .  S
C917        C918   1.411       .  A
C918        H924   1.081       .  S
C925        C926   1.404       .  A
C925        C930   1.402       .  A
C926        C927   1.397       .  A
C926        H935   1.083       .  S
C927        C928   1.402       .  A
C927        H936   1.084   1_565  S
C928        C929   1.413       .  A
C929        C931   1.399       .  A
C929        C930   1.398       .  A
C930        H937   1.086       .  S
C931        H938   1.084       .  S
C932        C933   1.408       .  A
C932        H939   1.083       .  S
C933        C934   1.406       .  A
C934        H940   1.084       .  S
C941        C942   1.400       .  A
C941        C946   1.400       .  A
C942        C943   1.399       .  A
C942        H951   1.083       .  S
C943        C944   1.405       .  A
C943        H952   1.084   1_455  S
C944        C950   1.400   1_455  A
C944        C945   1.413       .  A
C945       C2207   1.400       .  A
C945        C946   1.392       .  A
C946        H953   1.083       .  S
C947       C2205   1.400       .  A
C947        C948   1.393       .  A
C947        H954   1.084       .  S
C948        C949   1.405       .  A
C948        H955   1.083       .  S
C949       C2210   1.407       .  A
C950       C2209   1.407       .  A
C950        H956   1.086       .  S
C957        C958   1.404       .  A
C957        C962   1.408       .  A
C958        C959   1.394       .  A
C958        H967   1.084       .  S
C959        C960   1.401       .  A
C959        H968   1.084       .  S
C960        C966   1.396       .  A
C960        C961   1.412       .  A
C961        C963   1.406       .  A
C961        C962   1.403       .  A
C962        H969   1.084       .  S
C963        C964   1.400       .  A
C963        H970   1.083       .  S
C964        C965   1.401       .  A
C964        H971   1.082       .  S
C965        C966   1.403       .  A
C966        H972   1.085       .  S
C973        C974   1.401       .  A
C973        C978   1.410       .  A
C974        C975   1.395   1_565  A
C974        H983   1.076       .  S
C975        C976   1.402       .  A
C975        H984   1.083       .  S
C977        C979   1.406       .  A
C978        H985   1.083       .  S
C979        C980   1.400       .  A
C979        H986   1.084       .  S
C980        C981   1.402       .  A
C980        H987   1.083       .  S
C981        C982   1.403       .  A
C982        H988   1.083       .  S
C989        C990   1.404       .  A
C989        C994   1.403       .  A
C990        C991   1.396   1_455  A
C990        H999   1.082       .  S
C991        C992   1.403       .  A
C991       H1000   1.084       .  S
C992       C2258   1.395       .  A
C992       C2253   1.410   1_655  A
C993       C2252   1.410       .  A
C993        C995   1.402       .  A
C993       C2254   1.393       .  A
C994       C2253   1.393       .  A
C994       H1001   1.081       .  S
C995        C996   1.395       .  A
C995       H1002   1.084       .  S
C996        C997   1.402       .  A
C996       H1003   1.080       .  S
C997        C998   1.406       .  A
C998       C2252   1.395       .  A
C998       H1004   1.082       .  S
C1005      C1006   1.401       .  A
C1005      C1010   1.401       .  A
C1006      C1007   1.396       .  A
C1006      H1015   1.083       .  S
C1007      C1008   1.403       .  A
C1007      H1016   1.083       .  S
C1008      C1014   1.399       .  A
C1008      C1009   1.414       .  A
C1009      C1011   1.403       .  A
C1009      C1010   1.400       .  A
C1010      H1017   1.084       .  S
C1011      C1012   1.397       .  A
C1011      H1018   1.083       .  S
C1012      C1013   1.400       .  A
C1012      H1019   1.084       .  S
C1013      C1014   1.401       .  A
C1014      H1020   1.084       .  S
C1021      C1022   1.399       .  A
C1021      C1026   1.407       .  A
C1022      C1023   1.393       .  A
C1022      H1031   1.083       .  S
C1023      C1024   1.403       .  A
C1023      H1032   1.085       .  S
C1024      C1030   1.390       .  A
C1024      C1025   1.411       .  A
C1025      C1027   1.407       .  A
C1025      C1026   1.399       .  A
C1026      H1033   1.085       .  S
C1028      H1035   1.083       .  S
C1029      C1030   1.406       .  A
C1030      H1036   1.086       .  S
C1037      C1038   1.398       .  A
C1037      C1042   1.411       .  A
C1038      C1039   1.397   1_565  A
C1038      H1047   1.083   1_565  S
C1039      C1040   1.407   1_545  A
C1039      H1048   1.082       .  S
C1040      C1046   1.392   1_565  A
C1040      C1041   1.406       .  A
C1041      C1043   1.406       .  A
C1041      C1042   1.396       .  A
C1042      H1049   1.083       .  S
C1043      C1044   1.400       .  A
C1043      H1050   1.082       .  S
C1044      C1045   1.404       .  A
C1044      H1051   1.081       .  S
C1045      C1046   1.409   1_565  A
C1046      H2312   1.077       .  S
H1052      C2306   1.077       .  S
C1053      C1054   1.402       .  A
C1053      C1058   1.408       .  A
C1054      C1055   1.395       .  A
C1054      H1063   1.083       .  S
C1055      C1056   1.401       .  A
C1055      H1064   1.082       .  S
C1056      C1062   1.399       .  A
C1056      C1057   1.412       .  A
C1057      C1059   1.404       .  A
C1057      C1058   1.402       .  A
C1058      H1065   1.083       .  S
C1059      C1060   1.399       .  A
C1059      H1066   1.082   1_455  S
C1060      C1061   1.402       .  A
C1060      H2327   1.083   1_455  S
C1061      C1062   1.400       .  A
C1062      H1068   1.084       .  S
H1067      C2320   1.083       .  S
C1069      C1070   1.408       .  A
C1069      C1074   1.405       .  A
C1070      C1071   1.396       .  A
C1070      H1079   1.083       .  S
C1071      C1072   1.401       .  A
C1071      H1080   1.084       .  S
C1072      C1078   1.400       .  A
C1072      C1073   1.413       .  A
C1073      C1075   1.401       .  A
C1073      C1074   1.400       .  A
C1074      H1081   1.085   1_565  S
C1075      C1076   1.395       .  A
C1075      H1082   1.084   1_565  S
C1076      C1077   1.401       .  A
C1076      H1083   1.082       .  S
C1077      C1078   1.403       .  A
C1078      H1084   1.084       .  S
C1085      C1086   1.401       .  A
C1085      C1090   1.399       .  A
C1086      C1087   1.398       .  A
C1086      H1095   1.084       .  S
C1087      C1088   1.403       .  A
C1087      H1096   1.082   1_565  S
C1088      C1094   1.404       .  A
C1088      C1089   1.414       .  A
C1089      C1091   1.399       .  A
C1089      C1090   1.400       .  A
C1090      H1097   1.084       .  S
C1091      C1092   1.395       .  A
C1091      H1098   1.084   1_455  S
C1092      C1093   1.409       .  A
C1092      H1099   1.083   1_455  S
C1093      C1094   1.408       .  A
C1094      H1100   1.083   1_565  S
C1101      C1102   1.403       .  A
C1101      C1106   1.402       .  A
C1102      C1103   1.399       .  A
C1102      H1111   1.079       .  S
C1103      C1104   1.404       .  A
C1103      H1112   1.083       .  S
C1104      C1110   1.405       .  A
C1104      C1105   1.412       .  A
C1105      C1107   1.401       .  A
C1105      C1106   1.399       .  A
C1106      H1113   1.081       .  S
C1107      C1108   1.395       .  A
C1107      H1114   1.084       .  S
C1108      C1109   1.405       .  A
C1108      H1115   1.083       .  S
C1109      C1110   1.408       .  A
C1110      H1116   1.084       .  S
C1117      C1118   1.401       .  A
C1117      C1122   1.405       .  A
C1118      C1119   1.401       .  A
C1118      H1127   1.083   1_565  S
C1119      C1120   1.407       .  A
C1119      H1128   1.083       .  S
C1120      C1126   1.400       .  A
C1120      C1121   1.411       .  A
C1121      C1123   1.403       .  A
C1121      C1122   1.393       .  A
C1122      H1129   1.084   1_455  S
C1123      C1124   1.394       .  A
C1123      H1130   1.083   1_455  S
C1124      C1125   1.399       .  A
C1124      H1131   1.083       .  S
C1125      C1126   1.406       .  A
C1126      H1132   1.084       .  S
C1133      C1134   1.399       .  A
C1133      C1138   1.409       .  A
C1134      C1135   1.391       .  A
C1134      H1143   1.080       .  S
C1135      C1136   1.400       .  A
C1135      H1144   1.085   1_565  S
C1136      C1142   1.391       .  A
C1136      C1137   1.412       .  A
C1137      C1139   1.408       .  A
C1137      C1138   1.403       .  A
C1138      H1145   1.086       .  S
C1139      C1140   1.403       .  A
C1139      H1146   1.084       .  S
C1140      C1141   1.402       .  A
C1140      H1147   1.083       .  S
C1141      C1142   1.400       .  A
C1142      H1148   1.086   1_565  S
C1149      C1150   1.401       .  A
C1149      C1154   1.401       .  A
C1150      C1151   1.399       .  A
C1150      H2419   1.082   1_455  S
C1151      C1152   1.405       .  A
C1151      H2420   1.083       .  S
C1152      C1158   1.398       .  A
C1152      C1153   1.412       .  A
C1153      C1155   1.401       .  A
C1153      C1154   1.394       .  A
C1154      H1161   1.084       .  S
C1155      C1156   1.393       .  A
C1155      H1162   1.083       .  S
C1156      C1157   1.399       .  A
C1156      H1163   1.080       .  S
C1157      C1158   1.405       .  A
C1158      H1164   1.085       .  S
H1159      C2410   1.082       .  S
H1160      C2411   1.083       .  S
C1165      C1166   1.405       .  A
C1165      C1170   1.400       .  A
C1166      C1167   1.400       .  A
C1166      H1175   1.083       .  S
C1167      C1168   1.403       .  A
C1167      H1176   1.084       .  S
C1168      C1174   1.405       .  A
C1168      C1169   1.414       .  A
C1169      C1171   1.401       .  A
C1169      C1170   1.402       .  A
C1170      H1177   1.085       .  S
C1171      C1172   1.396       .  A
C1171      H1178   1.084       .  S
C1172      C1173   1.403       .  A
C1172      H1179   1.083       .  S
C1173      C1174   1.406       .  A
C1174      H1180   1.085       .  S
C1181      C1182   1.405       .  A
C1181      C1186   1.409       .  A
C1182      C1183   1.391       .  A
C1182      H2451   1.083       .  S
C1183      C1184   1.399       .  A
C1183      H2452   1.085       .  S
C1184      C1190   1.393       .  A
C1184      C1185   1.413       .  A
C1185      C1187   1.406       .  A
C1185      C1186   1.404       .  A
C1186      H1193   1.084       .  S
C1187      C1188   1.401       .  A
C1187      H1194   1.084       .  S
C1188      C1189   1.403       .  A
C1188      H1195   1.083       .  S
C1189      C1190   1.401       .  A
C1190      H1196   1.085       .  S
H1191      C2442   1.083       .  S
H1192      C2443   1.085       .  S
C1197      C1198   1.404       .  A
C1197      C1202   1.409       .  A
C1198      C1199   1.403       .  A
C1198      H1207   1.082       .  S
C1199      C1200   1.408       .  A
C1199      H1208   1.083       .  S
C1200      C1206   1.400       .  A
C1200      C1201   1.407       .  A
C1201      C1203   1.406       .  A
C1201      C1202   1.393       .  A
C1202      H1209   1.076       .  S
C1203      C1204   1.397       .  A
C1203      H1210   1.084       .  S
C1204      C1205   1.399       .  A
C1204      H1211   1.083       .  S
C1205      C1206   1.413       .  A
C1206      H1212   1.084       .  S
C1213      C1214   1.403   1_565  A
C1213      C1218   1.413       .  A
C1214      H1223   1.084       .  S
C1215      C1216   1.399       .  A
C1215      H1224   1.082       .  S
C1216      C1222   1.392       .  A
C1216      C1217   1.410       .  A
C1217      C1219   1.409       .  A
C1218      H1225   1.084       .  S
C1219      C1220   1.406       .  A
C1219      H1226   1.083       .  S
C1220      C1221   1.403       .  A
C1220      H1227   1.083       .  S
C1221      C1222   1.400       .  A
C1222      H1228   1.078       .  S
C1229      C1230   1.406       .  A
C1229      C2494   1.410       .  A
C1230      C1231   1.394   1_455  A
C1230      H1239   1.083       .  S
C1231      C2492   1.399       .  A
C1231      H1240   1.084       .  S
C1232      C2491   1.399       .  A
C1232      C1238   1.400       .  A
C1232      C1233   1.413       .  A
C1233      C1235   1.404       .  A
C1233      C1234   1.406       .  A
C1234      C2489   1.410       .  A
C1234      H1241   1.084       .  S
C1235      C1236   1.401       .  A
C1235      H1242   1.084       .  S
C1236      C1237   1.404       .  A
C1236      H1243   1.083       .  S
C1237      C1238   1.399       .  A
C1238      H1244   1.084       .  S
C1245      C1246   1.405       .  A
C1245      C1250   1.410       .  A
C1246      C1247   1.394       .  A
C1246      H1255   1.083       .  S
C1247      C1248   1.401       .  A
C1247      H1256   1.084       .  S
C1248      C1254   1.395       .  A
C1248      C1249   1.412       .  A
C1249      C1251   1.407       .  A
C1249      C1250   1.404       .  A
C1250      H1257   1.083       .  S
C1251      C1252   1.401       .  A
C1251      H1258   1.083       .  S
C1252      C1253   1.400       .  A
C1252      H1259   1.084       .  S
C1253      C1254   1.403       .  A
C1254      H1260   1.085       .  S
Zn1261     O1265   1.980       .  S
Zn1261     O1266   2.007       .  S
Zn1261     O1270   2.031       .  S
Zn1261     O1277   2.018       .  S
Zn1262     O1265   1.958       .  S
Zn1262     O1267   1.992       .  S
Zn1262     O1269   1.976       .  S
Zn1262     O1273   1.984       .  S
Zn1263     O1265   1.969       .  S
Zn1263     O1268   2.144       .  S
Zn1263     O1271   2.175       .  S
Zn1263     O1274   2.153       .  S
Zn1264     O1265   1.956       .  S
Zn1264     O1272   1.994       .  S
Zn1264     O1275   1.984       .  S
Zn1264     O1276   1.984       .  S
O1266      C1278   1.271       .  A
O1267      C1279   1.268       .  A
O1268      C1280   1.292       .  A
O1269      C1278   1.268       .  A
O1270      C1280   1.276       .  A
O1271      C1279   1.294       .  A
O1272      C1281   1.270       .  A
O1273      C1282   1.267       .  A
O1274      C1281   1.293       .  A
O1275      C1282   1.267       .  A
O1276      C1283   1.269       .  A
O1277      C1283   1.270       .  A
C1278      C1859   1.473       .  S
C1279      C1306   1.500       .  S
C1280      C1305   1.496       .  S
C1281      C1301   1.491       .  S
C1282      C1875   1.468       .  S
C1283      C1843   1.473       .  S
Zn1284     O1919   2.077   1_545  S
Zn1284     O1293   2.051       .  S
Zn1285     O1290   2.070       .  S
Zn1285     O1292   2.055       .  S
Zn1286     O1288   1.905       .  S
Zn1286     O1927   1.926       .  S
Zn1287     O1918   1.929   1_545  S
Zn1287     O1295   2.087       .  S
Zn1287     O1928   2.127   1_545  S
Zn1287     O1299   2.114       .  S
O1288     Zn1917   1.952       .  S
O1289     Zn1914   2.098       .  S
O1289      C1301   1.285       .  A
O1290      C1302   1.273       .  A
O1291      C1303   1.263   1_565  A
O1292      C1301   1.282       .  A
O1293      C1303   1.276       .  A
O1294      C1302   1.259       .  A
O1295      C1304   1.279       .  A
O1296      C1305   1.287       .  A
O1297     Zn1916   1.956   1_545  S
O1297      C1304   1.260       .  A
O1298     Zn1917   2.094       .  S
O1298      C1305   1.287       .  A
O1299      C1306   1.290       .  A
O1300      C1306   1.287       .  A
C1302      C1803   1.476       .  S
C1303      C1811   1.476       .  S
C1304      C1835   1.464       .  S
C1307      H1308   1.111       .  S
C1307      C1313   1.537       .  S
C1307      C1312   1.533       .  S
C1307      C1311   1.531       .  S
C1309      H1310   1.114       .  S
C1309      C1315   1.526       .  S
C1309      C1314   1.527       .  S
C1309      C1316   1.530       .  S
C1311      C1314   1.370       .  D
C1311      C1755   1.473       .  S
C1312      C1315   1.370       .  D
C1312      C1763   1.477       .  S
C1313      C1316   1.377       .  D
C1313      C1787   1.479       .  S
C1314      C1715   1.469       .  S
C1315      C1707   1.465       .  S
C1316      C1731   1.480       .  S
C1317      H1318   1.111       .  S
C1317      C1322   1.531   1_455  S
C1319      H1320   1.110       .  S
C1319      C1325   1.538   1_455  S
C1321      C1324   1.372       .  D
C1321      C1779   1.482       .  S
C1322      C1325   1.376       .  D
C1322      C1771   1.477       .  S
C1323      C1326   1.379       .  D
C1323      C1747   1.480       .  S
C1324      C1691   1.475       .  S
C1325      C1659   1.484       .  S
C1326      C1675   1.490       .  S
C1327      H1328   1.114       .  S
C1327      C1333   1.524       .  S
C1327      C1332   1.525       .  S
C1327      C1331   1.523       .  S
C1329      H1330   1.110       .  S
C1329      C1335   1.533       .  S
C1329      C1334   1.536       .  S
C1329      C1336   1.539       .  S
C1331      C1334   1.372       .  D
C1331      C1555   1.467       .  S
C1332      C1335   1.365       .  D
C1332      C1595   1.468       .  S
C1333      C1336   1.370       .  D
C1333      C1571   1.467       .  S
C1334      C1603   1.474       .  S
C1335      C1635   1.463       .  S
C1336      C1619   1.480       .  S
C1337      H1338   1.112       .  S
C1337      C1343   1.525       .  S
C1337      C1342   1.526       .  S
C1337      C1341   1.531       .  S
C1339      H1340   1.110       .  S
C1339      C1345   1.530       .  S
C1339      C1344   1.544       .  S
C1339      C1346   1.528       .  S
C1341      C1344   1.378       .  D
C1341      C1851   1.487       .  S
C1342      C1345   1.367       .  D
C1342      C1867   1.463       .  S
C1343      C1346   1.360       .  D
C1343      C1883   1.463       .  S
C1344      C1611   1.475       .  S
C1345      C1627   1.480       .  S
C1346      C1643   1.457       .  S
Zn1347     O1351   1.990       .  S
Zn1347     O1352   1.998       .  S
Zn1347     O1356   2.031       .  S
Zn1347     O1363   2.010       .  S
Zn1348     O1351   1.985       .  S
Zn1348     O1353   2.014       .  S
Zn1348     O1355   1.992       .  S
Zn1348     O1359   1.978       .  S
Zn1349     O1351   1.961       .  S
Zn1349     O1354   2.192       .  S
Zn1349     O1357   2.191       .  S
Zn1349     O1360   2.180       .  S
Zn1350     O1351   1.988       .  S
Zn1350     O1358   2.029       .  S
Zn1350     O1361   2.010       .  S
Zn1350     O1362   1.978       .  S
O1352      C1364   1.270       .  A
O1353      C1365   1.271       .  A
O1354      C1366   1.299       .  A
O1355      C1364   1.269       .  A
O1356      C1366   1.274       .  A
O1357      C1365   1.300       .  A
O1358      C1367   1.273       .  A
O1359      C1368   1.267       .  A
O1360      C1367   1.298       .  A
O1361      C1368   1.271       .  A
O1362      C1369   1.268       .  A
O1363      C1369   1.272       .  A
C1364      C1587   1.472       .  S
C1365      C1392   1.515       .  S
C1366      C1387   1.520       .  S
C1367      C1389   1.513       .  S
C1368      C1579   1.472       .  S
C1369      C1563   1.474       .  S
Zn1370     O1374   1.966       .  S
Zn1370     O1375   2.178       .  S
Zn1371     O1374   1.994       .  S
Zn1371     O1376   2.030       .  S
Zn1371     O1378   2.065       .  S
Zn1371     O2012   2.020   1_545  S
Zn1372     O1377   2.017       .  S
Zn1372     O2013   2.009   1_545  S
Zn1373     O1381   1.983       .  S
Zn1373     O1385   2.014       .  S
O1375      C1387   1.299       .  A
O1376      C1388   1.274       .  A
O1377      C1389   1.272       .  A
O1378      C1387   1.279       .  A
O1379      C1389   1.299       .  A
O1380      C1388   1.269       .  A
O1381      C1390   1.268       .  A
O1382     Zn2001   2.026       .  S
O1382      C1391   1.273       .  A
O1383     Zn2002   1.989       .  S
O1383      C1390   1.269       .  A
O1384      C1391   1.270       .  A
O1385      C1392   1.269       .  A
O1386      C1392   1.299       .  A
C1388      C1739   1.482       .  S
C1390      C1699   1.474       .  S
C1391      C1723   1.484       .  S
C1393      H1394   1.111       .  S
C1393      C1399   1.532       .  S
C1393      C1398   1.535       .  S
C1393      C1397   1.529       .  S
C1395      H1396   1.112       .  S
C1395      C1401   1.535       .  S
C1395      C1400   1.530       .  S
C1395      C1402   1.536       .  S
C1397      C1400   1.368       .  D
C1397      C1827   1.471       .  S
C1398      C1401   1.383       .  D
C1398      C1795   1.490       .  S
C1399      C1402   1.370       .  D
C1399      C1819   1.487       .  S
C1400      C1539   1.481       .  S
C1401      C1523   1.480       .  S
C1402      C1507   1.464       .  S
C1403      C1409   1.538       .  S
C1405      H1406   1.110       .  S
C1405      C1412   1.535       .  S
C1407      C1410   1.370       .  D
C1407      C1531   1.477       .  S
C1408      C1411   1.371       .  D
C1408      C1515   1.476       .  S
C1409      C1412   1.375       .  D
C1409      C1547   1.474       .  S
C1410      C1459   1.470       .  S
C1411      C1475   1.473       .  S
C1412      C1491   1.487       .  S
Zn1413     O1417   1.872       .  S
Zn1413     O1418   1.964       .  S
Zn1413     O1422   1.956       .  S
Zn1413     O1429   1.908       .  S
Zn1414     O1417   1.938       .  S
Zn1414     O1419   2.059   1_556  S
Zn1414     O1421   2.071       .  S
Zn1414     O1425   2.060   1_556  S
Zn1415     O1417   1.918       .  S
Zn1415     O1420   2.060       .  S
Zn1415     O1423   2.073   1_556  S
Zn1415     O1426   2.082   1_556  S
Zn1416     O1417   1.941       .  S
Zn1416     O1424   2.052   1_556  S
Zn1416     O1427   2.061   1_556  S
Zn1416     O1428   2.071       .  S
O1418      C1430   1.258       .  A
O1419      C1431   1.283       .  A
O1420      C1432   1.281       .  A
O1421      C1430   1.273       .  A
O1422      C1432   1.268       .  A
O1423      C1431   1.283       .  A
O1424      C1433   1.283       .  A
O1425      C1434   1.286       .  A
O1426      C1433   1.286       .  A
O1427      C1434   1.284       .  A
O1428      C1435   1.276       .  A
O1429      C1435   1.258       .  A
C1430      C1683   1.472       .  S
C1431      C1456   1.491       .  S
C1432      C1651   1.466       .  S
C1433      C2084   1.490       .  S
C1435      C1667   1.467       .  S
Zn1436     O1440   1.842       .  S
Zn1436     O1441   1.948       .  S
Zn1436     O1445   1.961       .  S
Zn1436     O1452   1.949       .  S
Zn1437     O1440   1.920       .  S
Zn1437     O1442   2.066       .  S
Zn1437     O1444   2.063       .  S
Zn1437     O1448   2.042       .  S
Zn1438     O1440   1.899       .  S
Zn1438     O1443   2.033       .  S
Zn1438     O1446   2.057       .  S
Zn1438     O1449   2.053       .  S
Zn1439     O1440   1.919       .  S
Zn1439     O1447   2.087       .  S
Zn1439     O1450   2.070       .  S
Zn1439     O1451   2.091       .  S
O1441      C1453   1.261       .  A
O1442      C1454   1.283       .  A
O1443      C1455   1.275       .  A
O1444      C1453   1.275       .  A
O1445      C1455   1.265       .  A
O1446      C1454   1.284       .  A
O1447      C1456   1.287       .  A
O1448      C1457   1.283       .  A
O1449      C1456   1.284       .  A
O1450      C1457   1.286       .  A
O1451      C1458   1.279       .  A
O1452      C1458   1.260       .  A
C1453      C1483   1.457       .  S
C1454      C2063   1.488   1_545  S
C1455      C1499   1.471       .  S
C1458      C1467   1.463       .  S
C1459      C1460   1.402       .  A
C1459      C1464   1.404       .  A
C1460      C1461   1.397       .  A
C1460      H1469   1.081       .  S
C1461      C1462   1.402       .  A
C1461      H1470   1.084       .  S
C1462      C1468   1.401       .  A
C1462      C1463   1.413       .  A
C1463      C1465   1.404   1_655  A
C1463      C1464   1.402       .  A
C1464      H1471   1.084   1_655  S
C1465      C1466   1.399   1_455  A
C1465      H1472   1.083       .  S
C1466      C1467   1.403       .  A
C1466      H1473   1.083   1_655  S
C1467      C1468   1.403       .  A
C1468      H1474   1.085       .  S
C1475      C1476   1.402       .  A
C1475      C1480   1.404       .  A
C1476      C1477   1.401       .  A
C1476      H1485   1.083       .  S
C1477      C1478   1.406       .  A
C1477      H1486   1.084       .  S
C1478      C1484   1.401       .  A
C1478      C1479   1.412       .  A
C1479      C1481   1.404   1_545  A
C1479      C1480   1.397       .  A
C1480      H2117   1.081   1_545  S
C1481      C1482   1.395   1_565  A
C1481      H2118   1.084       .  S
C1482      C1483   1.398       .  A
C1482      H1489   1.084   1_545  S
C1483      C1484   1.405       .  A
C1484      H1490   1.083       .  S
H1487      C2110   1.082       .  S
H1488      C2111   1.083       .  S
C1491      C1492   1.404       .  A
C1491      C1496   1.406       .  A
C1492      C1493   1.404       .  A
C1492      H1501   1.082       .  S
C1493      C1494   1.407       .  A
C1493      H1502   1.083       .  S
C1494      C1500   1.401       .  A
C1494      C1495   1.408       .  A
C1495      C1497   1.401       .  A
C1495      C1496   1.389       .  A
C1496      H2133   1.074   1_545  S
C1497      C1498   1.390       .  A
C1497      H2134   1.083   1_545  S
C1498      C1499   1.403       .  A
C1498      H1505   1.084       .  S
C1499      C1500   1.411       .  A
C1500      H1506   1.084       .  S
H1503      C2126   1.081       .  S
H1504      C2127   1.083       .  S
C1507      C1508   1.400       .  A
C1507      C1512   1.402       .  A
C1508      C1509   1.397       .  A
C1508      H1517   1.084       .  S
C1509      C1510   1.405       .  A
C1509      H1518   1.083       .  S
C1510      C1516   1.395       .  A
C1510      C1511   1.409       .  A
C1511      C1513   1.404       .  A
C1511      C1512   1.395       .  A
C1512      H1519   1.082       .  S
C1513      C1514   1.398       .  A
C1513      H1520   1.084   1_545  S
C1514      C1515   1.402       .  A
C1514      H1521   1.084   1_545  S
C1515      C1516   1.405       .  A
C1523      C1524   1.405       .  A
C1523      C1528   1.405       .  A
C1524      C1525   1.400       .  A
C1524      H1533   1.081       .  S
C1525      C1526   1.403       .  A
C1525      H1534   1.084   1_655  S
C1526      C1532   1.408       .  A
C1526      C1527   1.414       .  A
C1527      C1529   1.402       .  A
C1527      C1528   1.404       .  A
C1528      H1535   1.085       .  S
C1529      C1530   1.397       .  A
C1529      H1536   1.084       .  S
C1530      C1531   1.402       .  A
C1530      H1537   1.080       .  S
C1531      C1532   1.405       .  A
C1532      H1538   1.085   1_655  S
C1539      C1540   1.403       .  A
C1539      C1544   1.408       .  A
C1540      C1541   1.397       .  A
C1540      H1549   1.082       .  S
C1541      C1542   1.403       .  A
C1541      H1550   1.084       .  S
C1542      C1548   1.396       .  A
C1542      C1543   1.410       .  A
C1543      C1545   1.406       .  A
C1543      C1544   1.399       .  A
C1544      H1551   1.081       .  S
C1545      C1546   1.400       .  A
C1545      H1552   1.084       .  S
C1546      C1547   1.401       .  A
C1546      H1553   1.084       .  S
C1547      C1548   1.402       .  A
C1548      H1554   1.079       .  S
C1555      C1556   1.403       .  A
C1555      C1560   1.402       .  A
C1556      C1557   1.396       .  A
C1556      H1565   1.082       .  S
C1557      C1558   1.401       .  A
C1557      H1566   1.083       .  S
C1558      C2194   1.403       .  A
C1558      C1559   1.413       .  A
C1559      C1561   1.400       .  A
C1559      C1560   1.400       .  A
C1560      H1567   1.085       .  S
C1561      C2192   1.395       .  A
C1561      H1568   1.083       .  S
C1562      C2191   1.393       .  A
C1562      C1563   1.406   1_565  A
C1562      H1569   1.083       .  S
C1563      C1564   1.407       .  A
C1564      C2188   1.402   1_545  A
C1564      H1570   1.084       .  S
C1571      C1572   1.400       .  A
C1571      C1576   1.400       .  A
C1572      C1573   1.399       .  A
C1572      H1581   1.083       .  S
C1573      C1574   1.405       .  A
C1573      H1582   1.084       .  S
C1574      C1580   1.401       .  A
C1574      C1575   1.412       .  A
C1575      C1576   1.394       .  A
C1576      H1583   1.081       .  S
C1577      C1578   1.394       .  A
C1577      H1584   1.084       .  S
C1578      C1579   1.406   1_455  A
C1578      H1585   1.083       .  S
C1580      H1586   1.086       .  S
C1587      C1588   1.403       .  A
C1587      C1592   1.410       .  A
C1588      C1589   1.393       .  A
C1588      H1597   1.083       .  S
C1589      C1590   1.400       .  A
C1589      H1598   1.083       .  S
C1590      C1596   1.395       .  A
C1590      C1591   1.412       .  A
C1591      C1593   1.406       .  A
C1591      C1592   1.402       .  A
C1592      H1599   1.084       .  S
C1593      C1594   1.400       .  A
C1593      H1600   1.083       .  S
C1594      C1595   1.402       .  A
C1594      H1601   1.082       .  S
C1595      C1596   1.400       .  A
C1596      H1602   1.084       .  S
C1603      C1604   1.400       .  A
C1603      C1608   1.407       .  A
C1604      C1605   1.393       .  A
C1604      H1613   1.076       .  S
C1605      C1606   1.401       .  A
C1605      H1614   1.083       .  S
C1606      C2242   1.394       .  A
C1606      C2237   1.411       .  A
C1607      C2236   1.409   1_565  A
C1607      C1609   1.406       .  A
C1607      C2238   1.400       .  A
C1608      C2237   1.400       .  A
C1608      H1615   1.084       .  S
C1609      C1610   1.400   1_565  A
C1609      H1616   1.084       .  S
C1610      C1611   1.401       .  A
C1610      H1617   1.083       .  S
C1611      C1612   1.405       .  A
C1612      C2236   1.395       .  A
C1612      H1618   1.083       .  S
C1619      C1620   1.404       .  A
C1619      C1624   1.404       .  A
C1620      C1621   1.397       .  A
C1620      H1629   1.082       .  S
C1621      C1622   1.403       .  A
C1621      H1630   1.084       .  S
C1623      C1625   1.402       .  A
C1624      H1631   1.079       .  S
C1625      C1626   1.395   1_455  A
C1625      H1632   1.084       .  S
C1626      C1627   1.403       .  A
C1626      H1633   1.081       .  S
C1627      C1628   1.407       .  A
C1628      H1634   1.081       .  S
C1635      C1636   1.401       .  A
C1635      C1640   1.399       .  A
C1636      C1637   1.396       .  A
C1636      H1645   1.082       .  S
C1637      C1638   1.403       .  A
C1637      H1646   1.084       .  S
C1638      C1644   1.395       .  A
C1638      C1639   1.413       .  A
C1639      C1641   1.403       .  A
C1639      C1640   1.395       .  A
C1640      H1647   1.082       .  S
C1641      C1642   1.395       .  A
C1641      H1648   1.084       .  S
C1642      C1643   1.399       .  A
C1642      H1649   1.084       .  S
C1643      C1644   1.399       .  A
C1644      H1650   1.083       .  S
C1651      C1652   1.398       .  A
C1651      C1656   1.410       .  A
C1652      C1653   1.395       .  A
C1652      H1661   1.083       .  S
C1653      C1654   1.404       .  A
C1653      H1662   1.084       .  S
C1654      C1660   1.393       .  A
C1654      C1655   1.410       .  A
C1655      C1657   1.409       .  A
C1655      C1656   1.403       .  A
C1656      H1663   1.085       .  S
C1657      C2288   1.404       .  A
C1657      H2294   1.084       .  S
C1658      C2287   1.401       .  A
C1658      C2289   1.401       .  A
C1658      H1665   1.082       .  S
C1659      C2288   1.403       .  A
C1659      C1660   1.407       .  A
C1660      H1666   1.086       .  S
H1664      C2287   1.084       .  S
C1667      C1668   1.399       .  A
C1667      C1672   1.409       .  A
C1668      C1669   1.398       .  A
C1668      H1677   1.082       .  S
C1669      C1670   1.407       .  A
C1669      H1678   1.083       .  S
C1670      C1676   1.395       .  A
C1670      C1671   1.407       .  A
C1671      C1673   1.405       .  A
C1671      C1672   1.395       .  A
C1672      H1679   1.085       .  S
C1673      C1674   1.399       .  A
C1673      H1680   1.083       .  S
C1674      C1675   1.404       .  A
C1674      H1681   1.081       .  S
C1675      C1676   1.410       .  A
C1683      C1684   1.403       .  A
C1683      C1688   1.408       .  A
C1684      C1685   1.398       .  A
C1684      H1693   1.083       .  S
C1685      C1686   1.404       .  A
C1685      H1694   1.083       .  S
C1686      C1692   1.403       .  A
C1686      C1687   1.411       .  A
C1687      C1689   1.404       .  A
C1687      C1688   1.403       .  A
C1688      H1695   1.083       .  S
C1689      C1690   1.400       .  A
C1689      H1696   1.082       .  S
C1690      C1691   1.403       .  A
C1691      C1692   1.404       .  A
C1692      H1698   1.084       .  S
C1699      C1700   1.406       .  A
C1699      C1704   1.407       .  A
C1700      C1701   1.394       .  A
C1700      H1709   1.083       .  S
C1701      C1702   1.400       .  A
C1701      H1710   1.084       .  S
C1702      C1708   1.397       .  A
C1702      C1703   1.412       .  A
C1703      C1705   1.402       .  A
C1703      C1704   1.399       .  A
C1704      H1711   1.086       .  S
C1705      C1706   1.397       .  A
C1705      H1712   1.085       .  S
C1706      C1707   1.403       .  A
C1706      H1713   1.082       .  S
C1707      C1708   1.401       .  A
C1708      H1714   1.083       .  S
C1715      C1716   1.403       .  A
C1715      C1720   1.399       .  A
C1716      C1717   1.400       .  A
C1716      H1725   1.083       .  S
C1717      C1718   1.404       .  A
C1717      H1726   1.083       .  S
C1718      C1724   1.407       .  A
C1718      C1719   1.414       .  A
C1719      C1721   1.398       .  A
C1719      C1720   1.401       .  A
C1720      H1727   1.084       .  S
C1721      C1722   1.394       .  A
C1721      H1728   1.085       .  S
C1722      C1723   1.409       .  A
C1722      H1729   1.082       .  S
C1723      C1724   1.410       .  A
C1724      H1730   1.083       .  S
C1731      C1732   1.404       .  A
C1731      C1736   1.405       .  A
C1732      C1733   1.400       .  A
C1732      H1741   1.081       .  S
C1733      C1734   1.403       .  A
C1733      H1742   1.082       .  S
C1734      C1740   1.406       .  A
C1734      C1735   1.412       .  A
C1735      C1737   1.402       .  A
C1735      C1736   1.404       .  A
C1736      H1743   1.080       .  S
C1737      C1738   1.398       .  A
C1737      H1744   1.084       .  S
C1738      C1739   1.407       .  A
C1738      H1745   1.083       .  S
C1739      C1740   1.408       .  A
C1740      H1746   1.083       .  S
C1747      C1748   1.401       .  A
C1747      C1752   1.407       .  A
C1748      C1749   1.401       .  A
C1748      H1757   1.083       .  S
C1749      C1750   1.407       .  A
C1749      H1758   1.083       .  S
C1750      C1756   1.399       .  A
C1750      C1751   1.410       .  A
C1751      C1753   1.404       .  A
C1751      C1752   1.394       .  A
C1752      H1759   1.084       .  S
C1753      C1754   1.396       .  A
C1753      H1760   1.083       .  S
C1754      C1755   1.400       .  A
C1754      H1761   1.083       .  S
C1755      C1756   1.407       .  A
C1756      H1762   1.084       .  S
C1763      C1764   1.402       .  A
C1763      C1768   1.407       .  A
C1764      C1765   1.395       .  A
C1764      H1773   1.080       .  S
C1765      C1766   1.403       .  A
C1765      H1774   1.085       .  S
C1766      C1772   1.395       .  A
C1766      C1767   1.411       .  A
C1767      C1769   1.406       .  A
C1767      C1768   1.400       .  A
C1768      H1775   1.086       .  S
C1769      C1770   1.400       .  A
C1769      H1776   1.084       .  S
C1770      C1771   1.401       .  A
C1770      H1777   1.083       .  S
C1771      C1772   1.407       .  A
C1772      H1778   1.086       .  S
C1779      C1780   1.401       .  A
C1779      C1784   1.409       .  A
C1780      C1781   1.400       .  A
C1781      C1782   1.405       .  A
C1782      C1788   1.399       .  A
C1782      C1783   1.409       .  A
C1783      C1785   1.404       .  A
C1783      C1784   1.398       .  A
C1784      H1791   1.084       .  S
C1785      C1786   1.399       .  A
C1785      H1792   1.083       .  S
C1786      C1787   1.401       .  A
C1786      H1793   1.077       .  S
C1787      C1788   1.409       .  A
C1788      H1794   1.084       .  S
C1795      C1796   1.403       .  A
C1795      C1800   1.412       .  A
C1796      C1797   1.395       .  A
C1796      H1805   1.073       .  S
C1797      C1798   1.400       .  A
C1797      H1806   1.084       .  S
C1798      C1804   1.398       .  A
C1798      C1799   1.409       .  A
C1799      C1801   1.406       .  A
C1799      C1800   1.403       .  A
C1800      H1807   1.082       .  S
C1801      C1802   1.401       .  A
C1801      H1808   1.084       .  S
C1802      C1803   1.405       .  A
C1802      H1809   1.083       .  S
C1803      C1804   1.407       .  A
C1804      H1810   1.085       .  S
C1811      C1812   1.403       .  A
C1811      C1816   1.414       .  A
C1812      C1813   1.390       .  A
C1813      C1814   1.400       .  A
C1814      C1820   1.390       .  A
C1814      C1815   1.409       .  A
C1815      C1817   1.410   1_545  A
C1815      C1816   1.406       .  A
C1816      H1823   1.084   1_545  S
C1817      C1818   1.407   1_565  A
C1817      H1824   1.083       .  S
C1818      C1819   1.404       .  A
C1818      H1825   1.083   1_545  S
C1819      C1820   1.404       .  A
C1820      H1826   1.083       .  S
C1827      C1828   1.403       .  A
C1827      C1832   1.403       .  A
C1828      C1829   1.399       .  A
C1828      H1837   1.083   1_545  S
C1829      C1830   1.403       .  A
C1829      H1838   1.084   1_545  S
C1830      C1836   1.403       .  A
C1830      C1831   1.414       .  A
C1831      C1833   1.403       .  A
C1831      C1832   1.402       .  A
C1832      H1839   1.085       .  S
C1833      C1834   1.398       .  A
C1833      H1840   1.084       .  S
C1834      C1835   1.402       .  A
C1834      H1841   1.083       .  S
C1835      C1836   1.405       .  A
C1836      H1842   1.084       .  S
C1843      C1844   1.401       .  A
C1843      C1848   1.412       .  A
C1844      C2475   1.390       .  A
C1844      H1853   1.084       .  S
C1845      C2474   1.391       .  A
C1845      C1846   1.400       .  A
C1845      H1854   1.084       .  S
C1846      C1852   1.395       .  A
C1846      C1847   1.411       .  A
C1847      C1849   1.409       .  A
C1847      C2478   1.411   1_545  A
C1848      C2477   1.408       .  A
C1848      H1855   1.084       .  S
C1849      C1850   1.408       .  A
C1849      H1856   1.083   1_545  S
C1850      C1851   1.405       .  A
C1850      H1857   1.083       .  S
C1851      C1852   1.403       .  A
C1852      H1858   1.080       .  S
C1859      C1860   1.405       .  A
C1860      C1861   1.391       .  A
C1860      H1869   1.083       .  S
C1861      H1870   1.083       .  S
C1862      C1868   1.396       .  A
C1862      C1863   1.414   1_655  A
C1863      C1865   1.404   1_455  A
C1863      C1864   1.403       .  A
C1864      H1871   1.084       .  S
C1865      C1866   1.399       .  A
C1865      H1872   1.083   1_655  S
C1866      C1867   1.402       .  A
C1866      H1873   1.083       .  S
C1867      C1868   1.397       .  A
C1868      H1874   1.083       .  S
C1875      C1876   1.403       .  A
C1875      C1880   1.408       .  A
C1876      C1877   1.392       .  A
C1876      H1885   1.083       .  S
C1877      C1878   1.401       .  A
C1877      H1886   1.084       .  S
C1878      C1884   1.391       .  A
C1878      C1879   1.411       .  A
C1879      C1881   1.406       .  A
C1879      C1880   1.398       .  A
C1880      H1887   1.084       .  S
C1881      C1882   1.399       .  A
C1881      H1888   1.083       .  S
C1882      C1883   1.399       .  A
C1882      H1889   1.084       .  S
C1883      C1884   1.400       .  A
C1884      H1890   1.084       .  S
Zn1891     O1895   1.983       .  S
Zn1891     O1896   2.013       .  S
Zn1891     O1900   2.034       .  S
Zn1891     O1907   2.028       .  S
Zn1892     O1895   1.963       .  S
Zn1892     O1897   2.005       .  S
Zn1892     O1899   1.991       .  S
Zn1892     O1903   1.998       .  S
Zn1893     O1895   1.978       .  S
Zn1893     O1898   2.167       .  S
Zn1893     O1901   2.160       .  S
Zn1893     O1904   2.155       .  S
Zn1894     O1895   1.963       .  S
Zn1894     O1902   2.007       .  S
Zn1894     O1905   2.012       .  S
Zn1894     O1906   1.988       .  S
O1896      C1908   1.272       .  A
O1897      C1909   1.270       .  A
O1898      C1910   1.295       .  A
O1899      C1908   1.270       .  A
O1900      C1910   1.276       .  A
O1901      C1909   1.293       .  A
O1902      C1911   1.271       .  A
O1903      C1912   1.270       .  A
O1904      C1911   1.293       .  A
O1905      C1912   1.270       .  A
O1906      C1913   1.270       .  A
O1907      C1913   1.271       .  A
C1908      C2489   1.479       .  S
C1909      C1936   1.496       .  S
C1910      C1935   1.507       .  S
C1911      C1931   1.493       .  S
C1912      C2505   1.477       .  S
C1913      C2473   1.477       .  S
Zn1914     O1923   2.026       .  S
Zn1915     O1920   2.075       .  S
Zn1915     O1922   2.095       .  S
Zn1916     O1918   1.860       .  S
Zn1917     O1925   2.073       .  S
Zn1917     O1929   2.088       .  S
O1919      C1931   1.287       .  A
O1920      C1932   1.278       .  A
O1921      C1933   1.268       .  A
O1922      C1931   1.288       .  A
O1923      C1933   1.275       .  A
O1924      C1932   1.262   1_455  A
O1925      C1934   1.278       .  A
O1926      C1935   1.290       .  A
O1927      C1934   1.261       .  A
O1928      C1935   1.292       .  A
O1929      C1936   1.285       .  A
O1930      C1936   1.284       .  A
C1932      C2433   1.469       .  S
C1933      C2441   1.473       .  S
C1934      C2465   1.472       .  S
C1937      H1938   1.112       .  S
C1937      C1943   1.531       .  S
C1937      C1942   1.528       .  S
C1937      C1941   1.528       .  S
C1939      H1940   1.113       .  S
C1939      C1945   1.527       .  S
C1939      C1944   1.528       .  S
C1939      C1946   1.526       .  S
C1941      C1944   1.367       .  D
C1941      C2385   1.468       .  S
C1942      C1945   1.372       .  D
C1942      C2393   1.471       .  S
C1943      C1946   1.371       .  D
C1943      C2417   1.461       .  S
C1944      C2345   1.467       .  S
C1945      C2337   1.466       .  S
C1946      C2361   1.475       .  S
C1947      H1948   1.111       .  S
C1947      C1952   1.529   1_445  S
C1949      H1950   1.109       .  S
C1949      C1955   1.533   1_445  S
C1951      C1954   1.360       .  D
C1951      C2409   1.467       .  S
C1952      C1955   1.368       .  D
C1952      C2401   1.472       .  S
C1953      C1956   1.379   1_565  D
C1953      C2377   1.475       .  S
C1954      C2321   1.467       .  S
C1955      C2289   1.478       .  S
C1956      C2305   1.489   1_545  S
C1957      H1958   1.114       .  S
C1957      C1963   1.520       .  S
C1957      C1962   1.523       .  S
C1957      C1961   1.524       .  S
C1959      H1960   1.109       .  S
C1959      C1965   1.530       .  S
C1959      C1964   1.537       .  S
C1959      C1966   1.540       .  S
C1961      C1964   1.374       .  D
C1961      C2185   1.467       .  S
C1962      C1965   1.366       .  D
C1962      C2225   1.468       .  S
C1963      C1966   1.368       .  D
C1963      C2201   1.466       .  S
C1964      C2233   1.481       .  S
C1965      C2265   1.464       .  S
C1966      C2249   1.475       .  S
C1967      H1968   1.113       .  S
C1967      C1973   1.528       .  S
C1967      C1972   1.525       .  S
C1967      C1971   1.531       .  S
C1969      H1970   1.110       .  S
C1969      C1975   1.535       .  S
C1969      C1974   1.538       .  S
C1969      C1976   1.528       .  S
C1971      C1974   1.373       .  D
C1971      C2481   1.479       .  S
C1972      C1975   1.370       .  D
C1972      C2497   1.470       .  S
C1973      C1976   1.366       .  D
C1973      C2513   1.468       .  S
C1974      C2241   1.474       .  S
C1975      C2257   1.475       .  S
C1976      C2273   1.464       .  S
Zn1977     O1981   1.986       .  S
Zn1977     O1982   1.995       .  S
Zn1977     O1986   2.044       .  S
Zn1977     O1993   2.025       .  S
Zn1978     O1981   1.988       .  S
Zn1978     O1983   2.003       .  S
Zn1978     O1985   2.003       .  S
Zn1978     O1989   1.978       .  S
Zn1979     O1981   1.964       .  S
Zn1979     O1984   2.189       .  S
Zn1979     O1987   2.177       .  S
Zn1979     O1990   2.179       .  S
Zn1980     O1981   1.985       .  S
Zn1980     O1988   2.019       .  S
Zn1980     O1991   2.006       .  S
Zn1980     O1992   1.976       .  S
O1982      C1994   1.270       .  A
O1983      C1995   1.269       .  A
O1984      C1996   1.299       .  A
O1985      C1994   1.271       .  A
O1986      C1996   1.276       .  A
O1987      C1995   1.298       .  A
O1988      C1997   1.271       .  A
O1989      C1998   1.267       .  A
O1990      C1997   1.298       .  A
O1991      C1998   1.270       .  A
O1992      C1999   1.268       .  A
O1993      C1999   1.274       .  A
C1994      C2217   1.473       .  S
C1995      C2022   1.507       .  S
C1996      C2017   1.521       .  S
C1997      C2019   1.512       .  S
C1998      C2209   1.470       .  S
C1999      C2193   1.478       .  S
Zn2000     O2004   1.965       .  S
Zn2000     O2005   2.186       .  S
Zn2001     O2004   1.998       .  S
Zn2001     O2006   2.022       .  S
Zn2001     O2008   2.057       .  S
Zn2002     O2007   2.014       .  S
Zn2003     O2011   1.975       .  S
Zn2003     O2015   2.000       .  S
O2005      C2017   1.300       .  A
O2006      C2018   1.272       .  A
O2007      C2019   1.271       .  A
O2008      C2017   1.279       .  A
O2009      C2019   1.299       .  A
O2010      C2018   1.268       .  A
O2011      C2020   1.266       .  A
O2012      C2021   1.273       .  A
O2013      C2020   1.271       .  A
O2014      C2021   1.269       .  A
O2015      C2022   1.268       .  A
O2016      C2022   1.297       .  A
C2018      C2369   1.477       .  S
C2020      C2329   1.475       .  S
C2021      C2353   1.481       .  S
C2023      H2024   1.108       .  S
C2023      C2029   1.528       .  S
C2023      C2028   1.524       .  S
C2023      C2027   1.542       .  S
C2025      H2026   1.111       .  S
C2025      C2031   1.539       .  S
C2025      C2030   1.539       .  S
C2025      C2032   1.531       .  S
C2027      C2030   1.384       .  D
C2027      C2457   1.491       .  S
C2028      C2031   1.370       .  D
C2028      C2425   1.476       .  S
C2029      C2032   1.363       .  D
C2029      C2449   1.475       .  S
C2030      C2169   1.490       .  S
C2031      C2153   1.474       .  S
C2032      C2137   1.465       .  S
C2033      C2039   1.538       .  S
C2035      H2036   1.110       .  S
C2035      C2042   1.536       .  S
C2037      C2040   1.365       .  D
C2037      C2161   1.471       .  S
C2038      C2041   1.372       .  D
C2038      C2145   1.463       .  S
C2039      C2042   1.377       .  D
C2039      C2177   1.486       .  S
C2040      C2089   1.467       .  S
C2041      C2105   1.489       .  S
C2042      C2121   1.485       .  S
Zn2043     O2047   1.869       .  S
Zn2043     O2048   1.964       .  S
Zn2043     O2052   1.956       .  S
Zn2043     O2059   1.913       .  S
Zn2044     O2047   1.942       .  S
Zn2044     O2049   2.062   1_556  S
Zn2044     O2051   2.062       .  S
Zn2044     O2055   2.052   1_556  S
Zn2045     O2047   1.913       .  S
Zn2045     O2050   2.044       .  S
Zn2045     O2053   2.072   1_556  S
Zn2045     O2056   2.083   1_556  S
Zn2046     O2047   1.932       .  S
Zn2046     O2054   2.036   1_556  S
Zn2046     O2057   2.055   1_556  S
Zn2046     O2058   2.074       .  S
O2048      C2060   1.258       .  A
O2049      C2061   1.282       .  A
O2050      C2062   1.279       .  A
O2051      C2060   1.274       .  A
O2052      C2062   1.269       .  A
O2053      C2061   1.283       .  A
O2054      C2063   1.281       .  A
O2055      C2064   1.284       .  A
O2056      C2063   1.286       .  A
O2057      C2064   1.284       .  A
O2058      C2065   1.276       .  A
O2059      C2065   1.258       .  A
C2060      C2313   1.468       .  S
C2061      C2086   1.493       .  S
C2062      C2281   1.460       .  S
C2065      C2297   1.468       .  S
Zn2066     O2070   1.889       .  S
Zn2066     O2071   1.936       .  S
Zn2066     O2075   1.979       .  S
Zn2066     O2082   1.948       .  S
Zn2067     O2070   1.944       .  S
Zn2067     O2072   2.062       .  S
Zn2067     O2074   2.083       .  S
Zn2067     O2078   2.057       .  S
Zn2068     O2070   1.916       .  S
Zn2068     O2073   2.032       .  S
Zn2068     O2076   2.060       .  S
Zn2068     O2079   2.068       .  S
Zn2069     O2070   1.948       .  S
Zn2069     O2077   2.070       .  S
Zn2069     O2080   2.061       .  S
Zn2069     O2081   2.071       .  S
O2071      C2083   1.262       .  A
O2072      C2084   1.282       .  A
O2073      C2085   1.277       .  A
O2074      C2083   1.279       .  A
O2075      C2085   1.268       .  A
O2076      C2084   1.282       .  A
O2077      C2086   1.283       .  A
O2078      C2087   1.284       .  A
O2079      C2086   1.283       .  A
O2080      C2087   1.285       .  A
O2081      C2088   1.274       .  A
O2082      C2088   1.258       .  A
C2083      C2113   1.472       .  S
C2085      C2129   1.475       .  S
C2088      C2097   1.458       .  S
C2089      C2090   1.401       .  A
C2089      C2094   1.400       .  A
C2090      C2091   1.396       .  A
C2090      H2099   1.081       .  S
C2091      C2092   1.402       .  A
C2091      H2100   1.084       .  S
C2092      C2098   1.400       .  A
C2092      C2093   1.414       .  A
C2093      C2095   1.402   1_655  A
C2093      C2094   1.401       .  A
C2094      H2101   1.085   1_655  S
C2095      C2096   1.397   1_455  A
C2095      H2102   1.084       .  S
C2096      C2097   1.402       .  A
C2096      H2103   1.083   1_655  S
C2097      C2098   1.402       .  A
C2098      H2104   1.085       .  S
C2105      C2106   1.403       .  A
C2105      C2110   1.411       .  A
C2106      C2107   1.399       .  A
C2106      H2115   1.082       .  S
C2107      C2108   1.405       .  A
C2107      H2116   1.084       .  S
C2108      C2114   1.400       .  A
C2108      C2109   1.410       .  A
C2109      C2111   1.408       .  A
C2109      C2110   1.403       .  A
C2111      C2112   1.403       .  A
C2112      C2113   1.400       .  A
C2112      H2119   1.084       .  S
C2113      C2114   1.408       .  A
C2114      H2120   1.085       .  S
C2121      C2122   1.405       .  A
C2121      C2126   1.402       .  A
C2122      C2123   1.405       .  A
C2122      H2131   1.083       .  S
C2123      C2124   1.407       .  A
C2123      H2132   1.083       .  S
C2124      C2130   1.408       .  A
C2124      C2125   1.412       .  A
C2125      C2127   1.398       .  A
C2125      C2126   1.395       .  A
C2127      C2128   1.390       .  A
C2128      C2129   1.404       .  A
C2128      H2135   1.083       .  S
C2129      C2130   1.412       .  A
C2130      H2136   1.084       .  S
C2137      C2138   1.399       .  A
C2137      C2142   1.401       .  A
C2138      C2139   1.394       .  A
C2138      H2147   1.084       .  S
C2139      C2140   1.402       .  A
C2139      H2148   1.083   1_655  S
C2140      C2146   1.395       .  A
C2140      C2141   1.414       .  A
C2141      C2143   1.405       .  A
C2141      C2142   1.399       .  A
C2142      H2149   1.082       .  S
C2143      C2144   1.398       .  A
C2143      H2150   1.084       .  S
C2144      C2145   1.400       .  A
C2144      H2151   1.082       .  S
C2145      C2146   1.398       .  A
C2153      C2154   1.401       .  A
C2153      C2158   1.404       .  A
C2154      C2155   1.397       .  A
C2154      H2163   1.080       .  S
C2155      C2156   1.403       .  A
C2155      H2164   1.084   1_655  S
C2156      C2162   1.398       .  A
C2156      C2157   1.413       .  A
C2157      C2159   1.402       .  A
C2157      C2158   1.396       .  A
C2158      H2165   1.086       .  S
C2159      C2160   1.394       .  A
C2159      H2166   1.084       .  S
C2160      C2161   1.402       .  A
C2160      H2167   1.082       .  S
C2161      C2162   1.403       .  A
C2162      H2168   1.086   1_655  S
C2169      C2170   1.404       .  A
C2169      C2174   1.408       .  A
C2170      C2171   1.404       .  A
C2170      H2179   1.082       .  S
C2171      C2172   1.408       .  A
C2171      H2180   1.084       .  S
C2172      C2178   1.403       .  A
C2172      C2173   1.408       .  A
C2173      C2175   1.404       .  A
C2173      C2174   1.397       .  A
C2174      H2181   1.074       .  S
C2175      C2176   1.396       .  A
C2175      H2182   1.084       .  S
C2176      C2177   1.403       .  A
C2176      H2183   1.083       .  S
C2177      C2178   1.411       .  A
C2178      H2184   1.081       .  S
C2185      C2186   1.404       .  A
C2185      C2190   1.402       .  A
C2186      C2187   1.397       .  A
C2186      H2195   1.083       .  S
C2187      C2188   1.402       .  A
C2187      H2196   1.084   1_565  S
C2188      C2189   1.413       .  A
C2189      C2191   1.399       .  A
C2189      C2190   1.398       .  A
C2190      H2197   1.086       .  S
C2191      H2198   1.084       .  S
C2192      C2193   1.408       .  A
C2192      H2199   1.083       .  S
C2193      C2194   1.406       .  A
C2194      H2200   1.084       .  S
C2201      C2202   1.400       .  A
C2201      C2206   1.400       .  A
C2202      C2203   1.399       .  A
C2202      H2211   1.083       .  S
C2203      C2204   1.405       .  A
C2203      H2212   1.084       .  S
C2204      C2210   1.400       .  A
C2204      C2205   1.413       .  A
C2205      C2206   1.392       .  A
C2206      H2213   1.083       .  S
C2207      C2208   1.393       .  A
C2207      H2214   1.084       .  S
C2208      C2209   1.405   1_455  A
C2208      H2215   1.083       .  S
C2210      H2216   1.086       .  S
C2217      C2218   1.404       .  A
C2217      C2222   1.408       .  A
C2218      C2219   1.394       .  A
C2218      H2227   1.084       .  S
C2219      C2220   1.401       .  A
C2219      H2228   1.084       .  S
C2220      C2226   1.396       .  A
C2220      C2221   1.412       .  A
C2221      C2223   1.406       .  A
C2221      C2222   1.403       .  A
C2222      H2229   1.084       .  S
C2223      C2224   1.400       .  A
C2223      H2230   1.083       .  S
C2224      C2225   1.401       .  A
C2224      H2231   1.082       .  S
C2225      C2226   1.403       .  A
C2226      H2232   1.085       .  S
C2233      C2234   1.401       .  A
C2233      C2238   1.410       .  A
C2234      C2235   1.395   1_565  A
C2234      H2243   1.076       .  S
C2235      C2236   1.402       .  A
C2235      H2244   1.083       .  S
C2237      C2239   1.406       .  A
C2238      H2245   1.083       .  S
C2239      C2240   1.400       .  A
C2239      H2246   1.084       .  S
C2240      C2241   1.402       .  A
C2240      H2247   1.083       .  S
C2241      C2242   1.403       .  A
C2242      H2248   1.083       .  S
C2249      C2250   1.404       .  A
C2249      C2254   1.404       .  A
C2250      C2251   1.396       .  A
C2250      H2259   1.082       .  S
C2251      C2252   1.403       .  A
C2251      H2260   1.084       .  S
C2253      C2255   1.402       .  A
C2254      H2261   1.081       .  S
C2255      C2256   1.395   1_455  A
C2255      H2262   1.084       .  S
C2256      C2257   1.402       .  A
C2256      H2263   1.080       .  S
C2257      C2258   1.406       .  A
C2258      H2264   1.082       .  S
C2265      C2266   1.401       .  A
C2265      C2270   1.401       .  A
C2266      C2267   1.396       .  A
C2266      H2275   1.083       .  S
C2267      C2268   1.403       .  A
C2267      H2276   1.083       .  S
C2268      C2274   1.399       .  A
C2268      C2269   1.414       .  A
C2269      C2271   1.403       .  A
C2269      C2270   1.400       .  A
C2270      H2277   1.084       .  S
C2271      C2272   1.397       .  A
C2271      H2278   1.083       .  S
C2272      C2273   1.400       .  A
C2272      H2279   1.084       .  S
C2273      C2274   1.401       .  A
C2274      H2280   1.084       .  S
C2281      C2282   1.399       .  A
C2281      C2286   1.407       .  A
C2282      C2283   1.393       .  A
C2282      H2291   1.083       .  S
C2283      C2284   1.403       .  A
C2283      H2292   1.085       .  S
C2284      C2290   1.390       .  A
C2284      C2285   1.411       .  A
C2285      C2287   1.407       .  A
C2285      C2286   1.399       .  A
C2286      H2293   1.085       .  S
C2288      H2295   1.083       .  S
C2289      C2290   1.406       .  A
C2290      H2296   1.086       .  S
C2297      C2298   1.398       .  A
C2297      C2302   1.411       .  A
C2298      C2299   1.397   1_565  A
C2298      H2307   1.083   1_565  S
C2299      C2300   1.407   1_545  A
C2299      H2308   1.082       .  S
C2300      C2306   1.392   1_565  A
C2300      C2301   1.406       .  A
C2301      C2303   1.406       .  A
C2301      C2302   1.396       .  A
C2302      H2309   1.083       .  S
C2303      C2304   1.400       .  A
C2303      H2310   1.082       .  S
C2304      C2305   1.404       .  A
C2304      H2311   1.081       .  S
C2305      C2306   1.409   1_565  A
C2313      C2314   1.402       .  A
C2313      C2318   1.408       .  A
C2314      C2315   1.395       .  A
C2314      H2323   1.083       .  S
C2315      C2316   1.401       .  A
C2315      H2324   1.082       .  S
C2316      C2322   1.399       .  A
C2316      C2317   1.412       .  A
C2317      C2319   1.404       .  A
C2317      C2318   1.402       .  A
C2318      H2325   1.083       .  S
C2319      C2320   1.399       .  A
C2319      H2326   1.082       .  S
C2320      C2321   1.402       .  A
C2321      C2322   1.400       .  A
C2322      H2328   1.084       .  S
C2329      C2330   1.408       .  A
C2329      C2334   1.405       .  A
C2330      C2331   1.396       .  A
C2330      H2339   1.083       .  S
C2331      C2332   1.401       .  A
C2331      H2340   1.084       .  S
C2332      C2338   1.400       .  A
C2332      C2333   1.413       .  A
C2333      C2335   1.401       .  A
C2333      C2334   1.400       .  A
C2334      H2341   1.085   1_565  S
C2335      C2336   1.395       .  A
C2335      H2342   1.084   1_565  S
C2336      C2337   1.401       .  A
C2336      H2343   1.082       .  S
C2337      C2338   1.403       .  A
C2338      H2344   1.084       .  S
C2345      C2346   1.401       .  A
C2345      C2350   1.399       .  A
C2346      C2347   1.398       .  A
C2346      H2355   1.084       .  S
C2347      C2348   1.403       .  A
C2347      H2356   1.082   1_565  S
C2348      C2354   1.404       .  A
C2348      C2349   1.414       .  A
C2349      C2351   1.399       .  A
C2349      C2350   1.400       .  A
C2350      H2357   1.084       .  S
C2351      C2352   1.395       .  A
C2351      H2358   1.084       .  S
C2352      C2353   1.409       .  A
C2352      H2359   1.083       .  S
C2353      C2354   1.408       .  A
C2354      H2360   1.083   1_565  S
C2361      C2362   1.403       .  A
C2361      C2366   1.402       .  A
C2362      C2363   1.399       .  A
C2362      H2371   1.079       .  S
C2363      C2364   1.404       .  A
C2363      H2372   1.083       .  S
C2364      C2370   1.405       .  A
C2364      C2365   1.412       .  A
C2365      C2367   1.401       .  A
C2365      C2366   1.399       .  A
C2366      H2373   1.081       .  S
C2367      C2368   1.395       .  A
C2367      H2374   1.084       .  S
C2368      C2369   1.405       .  A
C2368      H2375   1.083       .  S
C2369      C2370   1.408       .  A
C2370      H2376   1.084       .  S
C2377      C2378   1.401       .  A
C2377      C2382   1.405       .  A
C2378      C2379   1.401       .  A
C2378      H2387   1.083   1_565  S
C2379      C2380   1.407       .  A
C2379      H2388   1.083       .  S
C2380      C2386   1.400       .  A
C2380      C2381   1.411       .  A
C2381      C2383   1.403       .  A
C2381      C2382   1.393       .  A
C2382      H2389   1.084       .  S
C2383      C2384   1.394       .  A
C2383      H2390   1.083       .  S
C2384      C2385   1.399       .  A
C2384      H2391   1.083       .  S
C2385      C2386   1.406       .  A
C2386      H2392   1.084       .  S
C2393      C2394   1.399       .  A
C2393      C2398   1.409       .  A
C2394      C2395   1.391       .  A
C2394      H2403   1.080       .  S
C2395      C2396   1.400       .  A
C2395      H2404   1.085   1_565  S
C2396      C2402   1.391       .  A
C2396      C2397   1.412       .  A
C2397      C2399   1.408       .  A
C2397      C2398   1.403       .  A
C2398      H2405   1.086       .  S
C2399      C2400   1.403       .  A
C2399      H2406   1.084       .  S
C2400      C2401   1.402       .  A
C2400      H2407   1.083       .  S
C2401      C2402   1.400       .  A
C2402      H2408   1.086   1_565  S
C2409      C2410   1.401       .  A
C2409      C2414   1.401       .  A
C2410      C2411   1.399       .  A
C2411      C2412   1.405       .  A
C2412      C2418   1.398       .  A
C2412      C2413   1.412       .  A
C2413      C2415   1.401       .  A
C2413      C2414   1.394       .  A
C2414      H2421   1.084       .  S
C2415      C2416   1.393       .  A
C2415      H2422   1.083       .  S
C2416      C2417   1.399       .  A
C2416      H2423   1.080       .  S
C2417      C2418   1.405       .  A
C2418      H2424   1.085       .  S
C2425      C2426   1.405       .  A
C2425      C2430   1.400       .  A
C2426      C2427   1.400   1_655  A
C2426      H2435   1.083   1_655  S
C2427      C2428   1.403   1_455  A
C2427      H2436   1.084       .  S
C2428      C2434   1.405       .  A
C2428      C2429   1.414       .  A
C2429      C2431   1.401       .  A
C2429      C2430   1.402       .  A
C2430      H2437   1.085       .  S
C2431      C2432   1.396       .  A
C2431      H2438   1.084       .  S
C2432      C2433   1.403       .  A
C2432      H2439   1.083       .  S
C2433      C2434   1.406       .  A
C2434      H2440   1.085   1_655  S
C2441      C2442   1.405       .  A
C2441      C2446   1.409       .  A
C2442      C2443   1.391       .  A
C2443      C2444   1.399       .  A
C2444      C2450   1.393       .  A
C2444      C2445   1.413       .  A
C2445      C2447   1.406       .  A
C2445      C2446   1.404       .  A
C2446      H2453   1.084       .  S
C2447      C2448   1.401       .  A
C2447      H2454   1.084       .  S
C2448      C2449   1.403       .  A
C2448      H2455   1.083       .  S
C2449      C2450   1.401       .  A
C2450      H2456   1.085       .  S
C2457      C2458   1.404       .  A
C2457      C2462   1.409       .  A
C2458      C2459   1.403       .  A
C2458      H2467   1.082       .  S
C2459      C2460   1.408       .  A
C2459      H2468   1.083       .  S
C2460      C2466   1.400       .  A
C2460      C2461   1.407       .  A
C2461      C2463   1.406       .  A
C2461      C2462   1.393       .  A
C2462      H2469   1.076       .  S
C2463      C2464   1.397       .  A
C2463      H2470   1.084       .  S
C2464      C2465   1.399       .  A
C2464      H2471   1.083       .  S
C2465      C2466   1.413       .  A
C2466      H2472   1.084       .  S
C2473      C2474   1.403   1_565  A
C2473      C2478   1.413       .  A
C2474      H2483   1.084       .  S
C2475      C2476   1.399       .  A
C2475      H2484   1.082       .  S
C2476      C2482   1.392       .  A
C2476      C2477   1.410       .  A
C2477      C2479   1.409       .  A
C2478      H2485   1.084       .  S
C2479      C2480   1.406       .  A
C2479      H2486   1.083       .  S
C2480      C2481   1.403       .  A
C2480      H2487   1.083       .  S
C2481      C2482   1.400       .  A
C2482      H2488   1.078       .  S
C2489      C2490   1.406       .  A
C2490      C2491   1.394       .  A
C2490      H2499   1.083       .  S
C2491      H2500   1.084       .  S
C2492      C2498   1.400       .  A
C2492      C2493   1.413       .  A
C2493      C2495   1.404       .  A
C2493      C2494   1.406   1_655  A
C2494      H2501   1.084       .  S
C2495      C2496   1.401       .  A
C2495      H2502   1.084       .  S
C2496      C2497   1.404       .  A
C2496      H2503   1.083       .  S
C2497      C2498   1.399       .  A
C2498      H2504   1.084       .  S
C2505      C2506   1.405       .  A
C2505      C2510   1.410       .  A
C2506      C2507   1.394       .  A
C2506      H2515   1.083       .  S
C2507      C2508   1.401       .  A
C2507      H2516   1.084       .  S
C2508      C2514   1.395       .  A
C2508      C2509   1.412       .  A
C2509      C2511   1.407       .  A
C2509      C2510   1.404       .  A
C2510      H2517   1.083       .  S
C2511      C2512   1.401       .  A
C2511      H2518   1.083       .  S
C2512      C2513   1.400       .  A
C2512      H2519   1.084       .  S
C2513      C2514   1.403       .  A
C2514      H2520   1.085       .  S
