geometry optimzed in LAMMPS
_audit_creation_date              2020-11-30 
_audit_creation_method            'lammps2cif' 
_symmetry_space_group_name_H-M    'P1' 
_symmetry_Int_Tables_number       1 
_symmetry_cell_setting            triclinic 
loop_ 
_symmetry_equiv_pos_as_xyz 
  x,y,z 
_cell_length_a                    25.24342163 
_cell_length_b                    43.595495223875986 
_cell_length_c                    43.16553906215346 
_cell_angle_alpha                 89.91612935688175 
_cell_angle_beta                  91.13447969424206 
_cell_angle_gamma                 89.60099854579168 
loop_ 
_atom_site_label 
_atom_site_type_symbol 
_atom_site_fract_x 
_atom_site_fract_y 
_atom_site_fract_z 
_atom_site_charge 
O1          O  0.75524457  0.31614065  0.19033542    -0.85600
O2          O  0.72327748  0.36568954  0.22404977    -0.82600
C3          C  0.69416338  0.38316748  0.23968111     0.97900
O4          O  0.66099231  0.37235855  0.25829410    -0.82700
O5          O  0.58484740  0.35089853  0.21819003    -0.85300
C6          C  0.56619458  0.33494828  0.19634343     1.02400
O7          O  0.57822416  0.30700085  0.19407967    -0.78100
O8          O  0.67625119  0.31417638  0.16928867    -0.78300
C9          C  0.72478243  0.32017325  0.16704187     1.02400
O10         O  0.75499252  0.27968917  0.24632731    -0.85600
O11         O  0.73494931  0.33202974  0.28001455    -0.82600
C12         C  0.70275908  0.32622312  0.30127539     0.97900
O13         O  0.65630394  0.31743644  0.29440921    -0.82700
O14         O  0.57237844  0.29620275  0.25628303    -0.85300
C15         C  0.57909233  0.26803291  0.24971007     1.02400
O16         O  0.61783771  0.25987288  0.23345941    -0.78100
O17         O  0.71451560  0.26230153  0.20463003    -0.78200
C18         C  0.74693885  0.25848520  0.22701422     1.02300
Cr19       Cr  0.73714661  0.32258367  0.23507285     1.93700
Cr20       Cr  0.62191365  0.33251589  0.25507002     1.93200
Cr21       Cr  0.64847152  0.28773866  0.20254531     1.39100
O22         O  0.66910049  0.31395938  0.23138451    -1.23300
O23         O  0.25363056  0.31586259  0.08503854    -0.85600
O24         O  0.28547931  0.36761956  0.05609548    -0.82600
C25         C  0.31500789  0.38701592  0.04356324     0.97900
O26         O  0.35318660  0.37831185  0.02704954    -0.82700
O27         O  0.42509730  0.35337733  0.06812971    -0.85300
C28         C  0.44092403  0.33567090  0.08947133     1.02400
O29         O  0.43131004  0.30743074  0.08791922    -0.78100
O30         O  0.33050361  0.31181682  0.10879382    -0.78300
C31         C  0.28169383  0.31776408  0.10957050     1.02400
O32         O  0.26180952  0.28307348  0.02687676    -0.85600
O33         O  0.28308097  0.33823231  0.99757102    -0.82600
C34         C  0.31814088  0.33529696  0.47773244     0.97900
O35         O  0.36531956  0.32737420  0.98589424    -0.82700
O36         O  0.44532948  0.30232102  0.02548513    -0.85300
C37         C  0.43858339  0.27358709  0.02905522     1.02400
O38         O  0.39823101  0.26398300  0.04289720    -0.78100
O39         O  0.29839528  0.26285627  0.06862779    -0.78200
C40         C  0.26741136  0.26082859  0.04539128     1.02300
Cr41       Cr  0.27630269  0.32536230  0.04160832     1.93700
Cr42       Cr  0.39381767  0.33840835  0.02808609     1.93200
Cr43       Cr  0.36305010  0.28861919  0.07486744     1.39100
O44         O  0.34445805  0.31722716  0.04761453    -1.23300
O45         O  0.25781346  0.35214453  0.32900349    -0.85600
O46         O  0.22483739  0.32175408  0.27676825    -0.82600
C47         C  0.18625807  0.30582858  0.28556139     0.97900
O48         O  0.14258295  0.31811445  0.29213676    -0.82700
O49         O  0.07512693  0.36194372  0.31499780    -0.85300
C50         C  0.08833283  0.36461587  0.34342549     1.02400
O51         O  0.13235350  0.37611052  0.35085372    -0.78100
O52         O  0.23415400  0.39633108  0.34756094    -0.78300
C53         C  0.25564290  0.37027132  0.35158254     1.02400
O54         O  0.27324245  0.40806635  0.29216089    -0.85600
O55         O  0.23121657  0.37701473  0.24200224    -0.82600
C56         C  0.19909096  0.36217385  0.22522252     0.97900
O57         O  0.15616239  0.35214588  0.23609530    -0.82700
O58         O  0.09245589  0.39931192  0.26078793    -0.85300
C59         C  0.07763678  0.42018293  0.27911027     1.02400
O60         O  0.09721307  0.42106692  0.30632533    -0.78100
O61         O  0.20060772  0.43544246  0.29700622    -0.78200
C62         C  0.24876477  0.43357986  0.29036411     1.02300
Cr63       Cr  0.24206372  0.36571548  0.28578374     1.93700
Cr64       Cr  0.12067238  0.35932485  0.27710403     1.93200
Cr65       Cr  0.16694806  0.40517058  0.32331642     1.39100
O66         O  0.17647292  0.37668425  0.29507586    -1.23300
O67         O  0.76292462  0.35173818  0.44817538    -0.85600
O68         O  0.79151020  0.32572767  0.50346024    -0.82600
C69         C  0.83067425  0.30926597  0.49605883     0.97900
O70         O  0.87519268  0.32113692  0.49087765    -0.82700
O71         O  0.94571636  0.36385798  0.46893001    -0.85300
C72         C  0.93598385  0.36380638  0.43998381     1.02400
O73         O  0.89161316  0.37290890  0.42983782    -0.78100
O74         O  0.78932719  0.39369516  0.42639101    -0.78300
C75         C  0.76876499  0.36751604  0.42409292     1.02400
O76         O  0.74260671  0.41043355  0.47954196    -0.85600
O77         O  0.77883880  0.38272321  0.03370536    -0.82600
C78         C  0.80885310  0.36850968  0.05259910     0.97900
O79         O  0.85332857  0.35812205  0.04404480    -0.82700
O80         O  0.91795871  0.40480303  0.01858220    -0.85300
C81         C  0.93397942  0.42477196  0.49896918     1.02400
O82         O  0.91920646  0.42226195  0.47093626    -0.78100
O83         O  0.81455853  0.43765984  0.47271799    -0.78200
C84         C  0.76558716  0.43613801  0.47713382     1.02300
Cr85       Cr  0.77395132  0.36877503  0.49058304     1.93700
Cr86       Cr  0.89440850  0.36341770  0.50431859     1.93200
Cr87       Cr  0.85276908  0.40467603  0.45228435     1.39100
O88         O  0.84023498  0.37917985  0.48285941    -1.23300
O89         O  0.22168003  0.05536726  0.10406344    -0.85600
O90         O  0.12217452  0.08023696  0.10213704    -0.82600
C91         C  0.07807374  0.09008981  0.09241999     0.97900
O92         O  0.06699920  0.08967610  0.06357332    -0.82700
O93         O  0.14030768  0.12934645  0.03892997    -0.85300
C94         C  0.18552838  0.13927651  0.03208547     1.02400
O95         O  0.22230868  0.12104347  0.02459501    -0.78100
O96         O  0.25169250  0.09540947  0.07999240    -0.78300
C97         C  0.24813405  0.07980446  0.10436477     1.02400
O98         O  0.18835262  0.01152322  0.05916910    -0.85600
O99         O  0.08620196  0.03077630  0.06262955    -0.82600
C100        C  0.07159441  0.02742736  0.03464234     0.97900
O101        O  0.08783521  0.04626251  0.01451159    -0.82700
O102        O  0.15451364  0.08986984  0.98647466    -0.85300
C103        C  0.19564341  0.07664240  0.47689070     1.02400
O104        O  0.22553488  0.06215268  0.99585666    -0.78100
O105        O  0.26290069  0.03538940  0.05031838    -0.78200
C106        C  0.23714788  0.01075830  0.05405422     1.02300
Cr107      Cr  0.15561310  0.04636069  0.07964589     1.93700
Cr108      Cr  0.11606085  0.08751956  0.02714032     1.93200
Cr109      Cr  0.23579721  0.07778289  0.03845542     1.39100
O110        O  0.16930216  0.07044910  0.04810267    -1.23300
O111        O  0.81340567  0.06470980  0.16938118    -0.85600
O112        O  0.91459318  0.05118506  0.18879621    -0.82600
C113        C  0.92887763  0.07866345  0.18836007     0.97900
O114        O  0.91589911  0.09631731  0.21008666    -0.82700
O115        O  0.85097127  0.12217745  0.25375768    -0.85300
C116        C  0.81151859  0.13345729  0.23913802     1.02400
O117        O  0.77726025  0.11667656  0.22623919    -0.78100
O118        O  0.73795721  0.06908104  0.19282771    -0.78300
C119        C  0.76571986  0.07345064  0.16910301     1.02400
O120        O  0.77610704  0.01428319  0.20449411    -0.85600
O121        O  0.87767777  0.00686807  0.23032808    -0.82600
C122        C  0.91949399  0.01399456  0.24534215     0.97900
O123        O  0.93065504  0.04212221  0.24999340    -0.82700
O124        O  0.86020094  0.06872748  0.29134192    -0.85300
C125        C  0.81497906  0.07649538  0.30084151     1.02400
O126        O  0.77704904  0.08185026  0.28199504    -0.78100
O127        O  0.74727730  0.03060180  0.24870136    -0.78200
C128        C  0.75046959  0.00962983  0.22876794     1.02300
Cr129      Cr  0.84411627  0.03618790  0.20048806     1.93700
Cr130      Cr  0.88558807  0.08081734  0.24972199     1.93200
Cr131      Cr  0.76485685  0.07353182  0.23707955     1.39100
O132        O  0.83161777  0.06329473  0.22981948    -1.23300
O133        O  0.32287493  0.12417661  0.35856431    -0.85600
O134        O  0.42319838  0.13504105  0.33828777    -0.82600
C135        C  0.43980055  0.10793240  0.33569612     0.97900
O136        O  0.42274193  0.09098185  0.31422590    -0.82700
O137        O  0.35412691  0.06876815  0.26973309    -0.85300
C138        C  0.31505962  0.05701532  0.28303571     1.02400
O139        O  0.28249226  0.07320397  0.29775788    -0.78100
O140        O  0.24664717  0.12063675  0.33376059    -0.78300
C141        C  0.27464321  0.11671597  0.35819440     1.02400
O142        O  0.28521494  0.17631790  0.32387611    -0.85600
O143        O  0.38468652  0.18171118  0.29806752    -0.82600
C144        C  0.42540948  0.17450032  0.28295436     0.97900
O145        O  0.43609095  0.14647767  0.27789154    -0.82700
O146        O  0.36115975  0.12483632  0.23591253    -0.85300
C147        C  0.31615068  0.11674634  0.22589765     1.02400
O148        O  0.27938620  0.11036434  0.24419507    -0.78100
O149        O  0.25195995  0.16075758  0.27972385    -0.78200
C150        C  0.25611861  0.18118422  0.30027516     1.02300
Cr151      Cr  0.35258699  0.15235016  0.32738445     1.93700
Cr152      Cr  0.38951387  0.10920112  0.27615873     1.93200
Cr153      Cr  0.27015541  0.11720214  0.28942123     1.39100
O154        O  0.33741118  0.12623097  0.29731621    -1.23300
O155        O  0.69782709  0.13127179  0.41660292    -0.85600
O156        O  0.59702414  0.14237000  0.43533848    -0.82600
C157        C  0.58289541  0.11474448  0.43542130     0.97900
O158        O  0.59662297  0.09740149  0.45753299    -0.82700
O159        O  0.66348264  0.07211842  0.50144930    -0.85300
C160        C  0.70074646  0.06084399  0.48583723     1.02400
O161        O  0.73390167  0.07795761  0.47302180    -0.78100
O162        O  0.77320682  0.12681103  0.44185452    -0.78300
C163        C  0.74536324  0.12221121  0.41765283     1.02400
O164        O  0.73471866  0.18214137  0.45422350    -0.81600
O165        O  0.63290095  0.18726414  0.47794917    -0.82600
C166        C  0.59144842  0.17949300  0.49201282     0.97900
O167        O  0.58258218  0.15149807  0.99666583    -0.82700
O168        O  0.65583469  0.12586937  0.03866615    -0.85300
C169        C  0.70119537  0.11737233  0.04837900     1.02400
O170        O  0.73696229  0.11035851  0.02950109    -0.78100
O171        O  0.76511384  0.16323179  0.49808827    -0.78200
C172        C  0.76146314  0.18518694  0.47908154     1.02300
Cr173      Cr  0.66703544  0.15881968  0.44820296     1.93700
Cr174      Cr  0.62802973  0.11330063  0.49705570     1.93200
Cr175      Cr  0.74738363  0.12072890  0.48529106     1.39100
O176        O  0.68070527  0.13123613  0.47742777    -1.23300
C177        C  0.48224142  0.09817655  0.35714289    -0.00400
C178        C  0.46842395  0.08561935  0.38584165    -0.12300
C179        C  0.50278668  0.08812598  0.41170152     0.01800
C180        C  0.55110006  0.10380846  0.40870337    -0.00500
C181        C  0.56676269  0.11345807  0.37925169    -0.12200
C182        C  0.53294982  0.11067976  0.35355318     0.01700
H183        H  0.42891297  0.07652179  0.38875264     0.14700
H184        H  0.60435321  0.12505727  0.37668667     0.14700
C185        C  0.54869455  0.12399227  0.32448647     0.36400
C186        C  0.48521393  0.07752362  0.44144144     0.36300
N187        N  0.56125501  0.13479562  0.30127788    -0.44000
N188        N  0.47102488  0.06898476  0.46526114    -0.44000
C189        C  0.76794309  0.10621668  0.39053103    -0.00400
C190        C  0.81867233  0.11373777  0.38016321    -0.12300
C191        C  0.83762481  0.10172573  0.35218819     0.01800
C192        C  0.80525030  0.08204109  0.33411196    -0.00500
C193        C  0.75674308  0.07252615  0.34598017    -0.12200
C194        C  0.73845576  0.08387928  0.37411923     0.01700
H195        H  0.84227776  0.13028538  0.39299359     0.14700
H196        H  0.73202943  0.05697374  0.33259135     0.14700
C197        C  0.69007792  0.07143572  0.38603615     0.36400
C198        C  0.88780844  0.11239428  0.34103990     0.36300
N199        N  0.65198571  0.06066623  0.39564277    -0.44000
N200        N  0.92789585  0.12101744  0.33196582    -0.44000
C201        C  0.74401704  0.08899520  0.14077910    -0.00400
C202        C  0.77943888  0.10606682  0.12306438    -0.12300
C203        C  0.76458594  0.11791983  0.09407732     0.01800
C204        C  0.71308447  0.11277702  0.08191158    -0.00500
C205        C  0.67587885  0.09830486  0.10077785    -0.12200
C206        C  0.69080763  0.08659868  0.13016429     0.01700
H207        H  0.81960195  0.10964046  0.13162722     0.14700
H208        H  0.63605307  0.09444131  0.09182652     0.14700
C209        C  0.65150937  0.07099653  0.14805972     0.36400
C210        C  0.80347641  0.13490655  0.07706313     0.36300
N211        N  0.61973863  0.05871945  0.16243527    -0.44000
N212        N  0.83468542  0.14854913  0.06353091    -0.44000
C213        C  0.30784308  0.10937863  0.19301940    -0.00400
C214        C  0.30966909  0.07828223  0.18507585    -0.12300
C215        C  0.29300035  0.06836010  0.15579622     0.01800
C216        C  0.27399686  0.08989674  0.13366431    -0.00500
C217        C  0.27514711  0.12136668  0.14105927    -0.12200
C218        C  0.29156262  0.13120803  0.17070698     0.01700
H219        H  0.32234000  0.06148488  0.20232505     0.14700
H220        H  0.26052744  0.13810986  0.12430001     0.14700
C221        C  0.28904112  0.16342114  0.17825434     0.36400
C222        C  0.29541380  0.03587451  0.14930254     0.36300
N223        N  0.28711685  0.18923721  0.18438039    -0.44000
N224        N  0.29738488  0.00984964  0.14416168    -0.44000
C225        C  0.21279898  0.08163762  0.44419100    -0.00400
C226        C  0.18021596  0.09935236  0.42407378    -0.12300
C227        C  0.19862043  0.11015134  0.39556857     0.01800
C228        C  0.25109290  0.10370855  0.38668790    -0.00500
C229        C  0.28258661  0.08453755  0.40575282    -0.12200
C230        C  0.26387547  0.07305215  0.43385373     0.01700
H231        H  0.14079861  0.10598520  0.43114741     0.14700
H232        H  0.32234035  0.07853837  0.39868236     0.14700
C233        C  0.29876345  0.05290772  0.45148726     0.36400
C234        C  0.16377165  0.12931041  0.37684568     0.36300
N235        N  0.32753167  0.03679946  0.96538017    -0.44000
N236        N  0.13578244  0.14460739  0.36180708    -0.44000
C237        C  0.03637984  0.09618940  0.11515893    -0.00400
C238        C  0.98618254  0.08438626  0.10830595    -0.12300
C239        C  0.94976345  0.07965221  0.13162061     0.01800
C240        C  0.96184882  0.08883859  0.16242920    -0.00500
C241        C  0.00980966  0.10390460  0.16867997    -0.12200
C242        C  0.04768113  0.10698198  0.14547021     0.01700
H243        H  0.97732412  0.07569168  0.08523534     0.14700
H244        H  0.01953175  0.11092111  0.19219694     0.14700
C245        C  0.09870926  0.11971929  0.15368402     0.36400
C246        C  0.90254063  0.06287561  0.12316362     0.36300
N247        N  0.13971342  0.12976639  0.16029051    -0.44000
N248        N  0.86594490  0.04889807  0.11517544    -0.44000
C249        C  0.73584786  0.46517144  0.47710459    -0.00400
C250        C  0.71313877  0.47572031  0.50451516    -0.12300
C251        C  0.69805786  0.50663334  0.50746803     0.01800
C252        C  0.70699386  0.02730157  0.48276084    -0.00500
C253        C  0.72608478  0.01598500  0.45469642    -0.12200
C254        C  0.73945498  0.48511306  0.45152299     0.01700
H255        H  0.70964532  0.46023946  0.02388619     0.14700
H256        H  0.73165609  0.03146365  0.43536993     0.14700
C257        C  0.75977567  0.47475846  0.42222331     0.36400
C258        C  0.67691694  0.01689229  0.03624618     0.36300
N259        N  0.77584482  0.46646690  0.39872396    -0.44000
N260        N  0.66117569  0.02531236  0.05977966    -0.44000
C261        C  0.78742670  0.21491178  0.48550958    -0.00400
C262        C  0.81232535  0.23034772  0.46121195    -0.12300
C263        C  0.83025106  0.26053090  0.46491024     0.01800
C264        C  0.82264026  0.27587968  0.49322682    -0.00500
C265        C  0.79923290  0.26018080  0.51779675    -0.12200
C266        C  0.78207279  0.22985640  0.51428607     0.01700
H267        H  0.81611603  0.21914918  0.43892965     0.14700
H268        H  0.78892734  0.27214330  0.03895333     0.14700
C269        C  0.75186420  0.21550405  0.03895790     0.36400
C270        C  0.85213300  0.27614155  0.43857495     0.36300
N271        N  0.72864889  0.20416938  0.05874101    -0.44000
N272        N  0.86946203  0.28876732  0.41749767    -0.44000
C273        C  0.97011377  0.45027489  0.00799495    -0.00400
C274        C  0.97580250  0.45877759  0.03925431    -0.12300
C275        C  0.00745498  0.48381133  0.04842711     0.01800
C276        C  0.03524543  0.50119939  0.02608298    -0.00500
C277        C  0.02957431  0.49316944  0.49491273    -0.12200
C278        C  0.99796552  0.46822963  0.48569041     0.01700
H279        H  0.95458821  0.44613674  0.05671036     0.14700
H280        H  0.05079246  0.50580215  0.47744864     0.14700
C281        C  0.99611898  0.46099772  0.45302857     0.36400
C282        C  0.00901348  0.99165703  0.08091259     0.36300
N283        N  0.99469677  0.45534580  0.42683272    -0.44000
N284        N  0.01026398  0.99769453  0.10702053    -0.44000
C285        C  0.27540209  0.46230637  0.28217591    -0.00400
C286        C  0.24661156  0.48312810  0.26345242    -0.12300
C287        C  0.26144081  0.01380573  0.26203317     0.01800
C288        C  0.30518762  0.02411694  0.27969615    -0.00500
C289        C  0.33712749  0.50291449  0.29567349    -0.12200
C290        C  0.32268665  0.47192407  0.29708560     0.01700
H291        H  0.21083462  0.47569867  0.25139468     0.14700
H292        H  0.37161188  0.51084772  0.30863371     0.14700
C293        C  0.35429397  0.45124046  0.31606876     0.36400
C294        C  0.22959953  0.03455018  0.24316845     0.36300
N295        N  0.37976828  0.43469481  0.33126107    -0.44000
N296        N  0.20408829  0.05103210  0.22792348    -0.44000
C297        C  0.22845435  0.21130782  0.29710067    -0.00400
C298        C  0.21420249  0.22241781  0.26743039    -0.12300
C299        C  0.19684663  0.25284984  0.26327533     0.01800
C300        C  0.19386235  0.27256732  0.28902649    -0.00500
C301        C  0.20401570  0.26099982  0.31874605    -0.12200
C302        C  0.22058468  0.23062322  0.32308796     0.01700
H303        H  0.21874699  0.20780961  0.24732908     0.14700
H304        H  0.20080153  0.27611184  0.33859817     0.14700
C305        C  0.22938536  0.22015305  0.35456057     0.36400
C306        C  0.18237459  0.26344979  0.23252269     0.36300
N307        N  0.23626541  0.21178122  0.37978731    -0.44000
N308        N  0.17002958  0.27184639  0.20795791    -0.44000
C309        C  0.03632559  0.44359401  0.26985666    -0.00400
C310        C  0.03462736  0.47156841  0.28612251    -0.12300
C311        C  0.99631603  0.49423500  0.27922103     0.01800
C312        C  0.95813144  0.48951739  0.25524000    -0.00500
C313        C  0.95878547  0.46119141  0.23954992    -0.12200
C314        C  0.99708040  0.43841764  0.24659591     0.01700
H315        H  0.06358303  0.47588866  0.30447460     0.14700
H316        H  0.92963899  0.45688550  0.22130492     0.14700
C317        C  0.99381191  0.40960054  0.23028335     0.36400
C318        C  0.99639139  0.52171655  0.29789776     0.36300
N319        N  0.99096007  0.38644542  0.21729957    -0.44000
N320        N  0.99514753  0.04335721  0.31373771    -0.44000
C321        C  0.05073901  0.35728514  0.36845578    -0.00400
C322        C  0.06778348  0.36134596  0.39946333    -0.12300
C323        C  0.03191107  0.36121910  0.42374142     0.01800
C324        C  0.97750106  0.35653446  0.41726992    -0.00500
C325        C  0.96138863  0.34926706  0.38680381    -0.12200
C326        C  0.99711478  0.34969276  0.36246323     0.01700
H327        H  0.10899126  0.36643884  0.40475669     0.14700
H328        H  0.91990739  0.34482267  0.38163384     0.14700
C329        C  0.97651550  0.34394336  0.33157520     0.36400
C330        C  0.05178701  0.36847459  0.45446577     0.36300
N331        N  0.95988576  0.33939590  0.30683874    -0.44000
N332        N  0.06789096  0.37435084  0.47902356    -0.44000
C333        C  0.23781740  0.23208985  0.04064668    -0.00400
C334        C  0.24043457  0.21730022  0.01193122    -0.12300
C335        C  0.22135122  0.18741104  0.00823539     0.01800
C336        C  0.19714008  0.17237954  0.03321969    -0.00500
C337        C  0.19104948  0.18803836  0.06128819    -0.12200
C338        C  0.21197621  0.21748568  0.06537191     0.01700
H339        H  0.26046348  0.22833498  0.99294016     0.14700
H340        H  0.17299140  0.17649132  0.08067051     0.14700
C341        C  0.20780644  0.23191906  0.09536620     0.36400
C342        C  0.22884695  0.17221588  0.97894361     0.36300
N343        N  0.20585892  0.24283919  0.62003605    -0.44000
N344        N  0.23529501  0.16008853  0.95548345    -0.44000
C345        C  0.30244856  0.42004141  0.04777435    -0.00400
C346        C  0.26826646  0.42788866  0.07183647    -0.12300
C347        C  0.24871561  0.45760725  0.07492957     0.01800
C348        C  0.26378681  0.48061008  0.05386428    -0.00500
C349        C  0.30084568  0.47359728  0.03112699    -0.12200
C350        C  0.32000214  0.44349650  0.02770784     0.01700
H351        H  0.25536916  0.41049780  0.08798562     0.14700
H352        H  0.31258276  0.49124138  0.01496617     0.14700
C353        C  0.35481632  0.43724159  0.00231993     0.36400
C354        C  0.21258765  0.46367656  0.09983183     0.36300
N355        N  0.38330041  0.43224834  0.48229549    -0.44000
N356        N  0.18347341  0.46848946  0.11965617    -0.44000
C357        C  0.55300202  0.20367500  0.00174697    -0.00400
C358        C  0.56783670  0.23475864  0.00269669    -0.12300
C359        C  0.53184801  0.25799142  0.01122802     0.01800
C360        C  0.47885288  0.25055253  0.01843516    -0.00500
C361        C  0.46421424  0.21950145  0.01737317    -0.12200
C362        C  0.50018383  0.19630572  0.00947416     0.01700
H363        H  0.60812841  0.24098809  0.99724157     0.14700
H364        H  0.42406518  0.21306450  0.02294343     0.14700
C365        C  0.48079579  0.16519806  0.00935678     0.36400
C366        C  0.55147249  0.28892703  0.01357154     0.36300
N367        N  0.46509415  0.14031729  0.00946134    -0.44000
N368        N  0.56778477  0.31360270  0.01552821    -0.44000
C369        C  0.25766373  0.32735585  0.13919949    -0.00400
C370        C  0.21370321  0.34752516  0.13876444    -0.12300
C371        C  0.19321873  0.35927888  0.16644642     0.01800
C372        C  0.21734088  0.35113992  0.19497685    -0.00500
C373        C  0.26020679  0.33053385  0.19545021    -0.12200
C374        C  0.27995306  0.31827734  0.16811589     0.01700
H375        H  0.19618647  0.35475721  0.11677428     0.14700
H376        H  0.27787388  0.32352347  0.21750412     0.14700
C377        C  0.32183429  0.29559191  0.17065463     0.36400
C378        C  0.14899498  0.38041357  0.16505284     0.36300
N379        N  0.35521321  0.27732413  0.17271493    -0.44000
N380        N  0.11359522  0.39741979  0.16396342    -0.44000
C381        C  0.27586688  0.36126869  0.38316172    -0.00400
C382        C  0.25649345  0.37770003  0.40851819    -0.12300
C383        C  0.26966716  0.36944556  0.43899635     0.01800
C384        C  0.30476912  0.34452425  0.44516037    -0.00500
C385        C  0.32557183  0.32842014  0.41991246    -0.12200
C386        C  0.31059889  0.33608727  0.38915244     0.01700
H387        H  0.22922449  0.39673394  0.40465316     0.14700
H388        H  0.35212868  0.30915989  0.42423559     0.14700
C389        C  0.33079707  0.31735828  0.36443160     0.36400
C390        C  0.24594015  0.38725616  0.46339474     0.36300
N391        N  0.34665924  0.30212213  0.34468144    -0.44000
N392        N  0.22773791  0.40211714  0.98274111    -0.44000
C393        C  0.80437917  0.16678659  0.23718480    -0.00400
C394        C  0.80197467  0.18025097  0.20774224    -0.12300
C395        C  0.78734219  0.21099345  0.20411052     0.01800
C396        C  0.77399776  0.22859080  0.23034024    -0.00500
C397        C  0.77986426  0.21563222  0.25998499    -0.12200
C398        C  0.79456354  0.18479782  0.26358331     0.01700
H399        H  0.81011194  0.16643550  0.18746489     0.14700
H400        H  0.76932660  0.22894066  0.28019372     0.14700
C401        C  0.79411514  0.17159598  0.29423790     0.36400
C402        C  0.78578210  0.22380920  0.17320591     0.36300
N403        N  0.79288301  0.16141552  0.31896684    -0.44000
N404        N  0.78461589  0.23414782  0.14848811    -0.44000
C405        C  0.70028811  0.41653989  0.23668981    -0.00400
C406        C  0.70042260  0.43506614  0.26329764    -0.12300
C407        C  0.71337206  0.46627696  0.26149489     0.01800
C408        C  0.72578185  0.47923535  0.23248879    -0.00500
C409        C  0.72086497  0.46100356  0.20573700    -0.12200
C410        C  0.70882340  0.43000775  0.20759370     0.01700
H411        H  0.69313239  0.42480802  0.28571391     0.14700
H412        H  0.72851100  0.47069170  0.18310762     0.14700
C413        C  0.70564951  0.41262478  0.17914442     0.36400
C414        C  0.71620201  0.98364150  0.28984123     0.36300
N415        N  0.70307121  0.39896339  0.15621514    -0.44000
N416        N  0.71843010  0.99731390  0.31278110    -0.44000
C417        C  0.53931413  0.24454539  0.25897825    -0.00400
C418        C  0.53940730  0.21597376  0.24380669    -0.12300
C419        C  0.50191687  0.19338601  0.25030098     0.01800
C420        C  0.46317550  0.19871582  0.27302347    -0.00500
C421        C  0.46238981  0.22743068  0.28782578    -0.12200
C422        C  0.49958913  0.25019141  0.28106367     0.01700
H423        H  0.56843945  0.21130372  0.22620655     0.14700
H424        H  0.43310801  0.23202864  0.30530285     0.14700
C425        C  0.49612899  0.27880330  0.29771077     0.36400
C426        C  0.50355402  0.16540030  0.23242392     0.36300
N427        N  0.49295814  0.30168352  0.31113066    -0.44000
N428        N  0.50498248  0.14308794  0.21795171    -0.44000
C429        C  0.75237232  0.35572565  0.39303486    -0.00400
C430        C  0.71177271  0.33381653  0.38998620    -0.12300
C431        C  0.69517979  0.32296721  0.36060196     0.01800
C432        C  0.71978152  0.33389937  0.33363759    -0.00500
C433        C  0.76172272  0.35478608  0.33710487    -0.12200
C434        C  0.77809936  0.36562697  0.36603211     0.01700
H435        H  0.69248170  0.32543496  0.41053487     0.14700
H436        H  0.78165584  0.36345958  0.31688061     0.14700
C437        C  0.82245214  0.38646232  0.36691019     0.36400
C438        C  0.65397844  0.30023086  0.35888493     0.36300
N439        N  0.85798225  0.40311004  0.36728242    -0.44000
N440        N  0.62113428  0.28186251  0.35753553    -0.44000
C441        C  0.74626565  0.33231746  0.13744622    -0.00400
C442        C  0.79700443  0.34574327  0.13759301    -0.12300
C443        C  0.81797308  0.35856972  0.11058865     0.01800
C444        C  0.78754810  0.35892291  0.08286683    -0.00500
C445        C  0.73693867  0.34573890  0.08270139    -0.12200
C446        C  0.71663941  0.33198236  0.10924206     0.01700
H447        H  0.82045097  0.34637386  0.15889217     0.14700
H448        H  0.71405844  0.34475937  0.06117872     0.14700
C449        C  0.66679209  0.31610540  0.10607070     0.36400
C450        C  0.87026096  0.37174345  0.11203948     0.36300
N451        N  0.62722208  0.30303061  0.10339008    -0.44000
N452        N  0.91216465  0.38233247  0.11324375    -0.44000
C453        C  0.46948515  0.34696755  0.11723828    -0.00400
C454        C  0.44568242  0.34235078  0.14600385    -0.12300
C455        C  0.47582316  0.34282723  0.17353240     0.01800
C456        C  0.53066645  0.34791484  0.17234255    -0.00500
C457        C  0.55318496  0.35628796  0.14408144    -0.12200
C458        C  0.52288862  0.35595786  0.11648170     0.01700
H459        H  0.40427672  0.33605964  0.14676188     0.14700
H460        H  0.59555353  0.36013944  0.14312571     0.14700
C461        C  0.54863032  0.36185051  0.08755920     0.36400
C462        C  0.45079582  0.33529833  0.20234675     0.36300
N463        N  0.56962844  0.36669019  0.06449256    -0.44000
N464        N  0.43071835  0.32940222  0.22546175    -0.44000
O465        O  0.75537358  0.31619539  0.69016896    -0.85600
O466        O  0.72308197  0.36569417  0.72382323    -0.82600
C467        C  0.69386665  0.38315569  0.73940270     0.97900
O468        O  0.66062315  0.37233539  0.75796827    -0.82700
O469        O  0.58466653  0.35089233  0.71780301    -0.85300
C470        C  0.56617575  0.33501320  0.69586629     1.02400
O471        O  0.57831553  0.30709387  0.69347593    -0.78100
O472        O  0.67650588  0.31432186  0.66896531    -0.78300
C473        C  0.72506353  0.32028492  0.66682158     1.02400
O474        O  0.75476217  0.27971355  0.74610660    -0.85600
O475        O  0.73448969  0.33205480  0.77981179    -0.82600
C476        C  0.70219141  0.32625383  0.80101986     0.97900
O477        O  0.65581935  0.31739031  0.79406547    -0.82700
O478        O  0.57213801  0.29612580  0.75576225    -0.85300
C479        C  0.57881368  0.26797220  0.74909715     1.02400
O480        O  0.61753062  0.25983519  0.73281028    -0.78100
O481        O  0.71449776  0.26237871  0.70431049    -0.78200
C482        C  0.74682567  0.25854025  0.72673991     1.02300
Cr483      Cr  0.73694849  0.32260572  0.73486435     1.93700
Cr484      Cr  0.62160846  0.33247211  0.75467587     1.93200
Cr485      Cr  0.64847162  0.28780631  0.70208416     1.39100
O486        O  0.66891972  0.31395946  0.73103796    -1.23300
O487        O  0.25300567  0.31580882  0.58516829    -0.85600
O488        O  0.28498284  0.36751926  0.55613946    -0.82600
C489        C  0.31445431  0.38687464  0.54349675     0.97900
O490        O  0.35250123  0.37810337  0.52690697    -0.82700
O491        O  0.42452043  0.35331558  0.56796607    -0.85300
C492        C  0.44037434  0.33570548  0.58937380     1.02400
O493        O  0.43067753  0.30746423  0.58800779    -0.78100
O494        O  0.32990355  0.31191727  0.60890184    -0.78300
C495        C  0.28106021  0.31775065  0.60969877     1.02400
O496        O  0.26117659  0.28297483  0.52707502    -0.85600
O497        O  0.28241994  0.33805478  0.49765858    -0.82600
C498        C  0.31886549  0.33560704  0.97766693     0.97900
O499        O  0.36453331  0.32696180  0.48595397    -0.82700
O500        O  0.44460344  0.30206076  0.52557422    -0.85300
C501        C  0.43787161  0.27334309  0.52930002     1.02400
O502        O  0.39754587  0.26380467  0.54320019    -0.78100
O503        O  0.29776228  0.26285637  0.56888300    -0.78200
C504        C  0.26679983  0.26077803  0.54564170     1.02300
Cr505      Cr  0.27567969  0.32525908  0.54172238     1.93700
Cr506      Cr  0.39313298  0.33818245  0.52804955     1.93200
Cr507      Cr  0.36241849  0.28859879  0.57505774     1.39100
O508        O  0.34381910  0.31710468  0.54770912    -1.23300
O509        O  0.25712230  0.35210386  0.82906975    -0.85600
O510        O  0.22396100  0.32163560  0.77690337    -0.82600
C511        C  0.18538576  0.30572787  0.78574458     0.97900
O512        O  0.14174207  0.31804900  0.79234313    -0.82700
O513        O  0.07439077  0.36202946  0.81506782    -0.85300
C514        C  0.08758480  0.36474105  0.84348797     1.02400
O515        O  0.13158604  0.37625981  0.85091387    -0.78100
O516        O  0.23347833  0.39631103  0.84761085    -0.78300
C517        C  0.25507957  0.37027279  0.85162122     1.02400
O518        O  0.27263919  0.40793861  0.79215551    -0.85600
O519        O  0.23034928  0.37687993  0.74207257    -0.82600
C520        C  0.19823676  0.36199887  0.72532377     0.97900
O521        O  0.15535628  0.35194975  0.73622464    -0.82700
O522        O  0.09187656  0.39922901  0.76076710    -0.85300
C523        C  0.07716020  0.42020269  0.77899445     1.02400
O524        O  0.09666306  0.42113515  0.80622774    -0.78100
O525        O  0.20009902  0.43539279  0.79694609    -0.78200
C526        C  0.24826589  0.43348402  0.79034473     1.02300
Cr527      Cr  0.24130351  0.36560878  0.78584520     1.93700
Cr528      Cr  0.11992845  0.35926093  0.77720806     1.93200
Cr529      Cr  0.16631622  0.40519957  0.82330986     1.39100
O530        O  0.17576043  0.37662708  0.79514751    -1.23300
O531        O  0.76234694  0.35152014  0.94801741    -0.85600
O532        O  0.79071575  0.32539497  0.00333006    -0.82600
C533        C  0.82998818  0.30892304  0.99611851     0.97900
O534        O  0.87452035  0.32080829  0.99100800    -0.82700
O535        O  0.94507385  0.36346877  0.96900375    -0.85300
C536        C  0.93535840  0.36345406  0.94005542     1.02400
O537        O  0.89100913  0.37257557  0.92990109    -0.78100
O538        O  0.78884040  0.39351301  0.92635780    -0.78300
C539        C  0.76816265  0.36737138  0.92397879     1.02400
O540        O  0.74208903  0.41020349  0.97945137    -0.85600
O541        O  0.77970846  0.38311107  0.53375730    -0.82600
C542        C  0.80966833  0.36882090  0.55261551     0.97900
O543        O  0.85407452  0.35837142  0.54401559    -0.82700
O544        O  0.91846755  0.40513272  0.51854068    -0.85300
C545        C  0.93366654  0.42437956  0.99900185     1.02400
O546        O  0.91881106  0.42190813  0.97097721    -0.78100
O547        O  0.81415838  0.43736973  0.97275399    -0.78200
C548        C  0.76514831  0.43589157  0.97704607     1.02300
Cr549      Cr  0.77328431  0.36848267  0.99048332     1.93700
Cr550      Cr  0.89374599  0.36309935  0.00437919     1.93200
Cr551      Cr  0.85228853  0.40437969  0.95231921     1.39100
O552        O  0.83962769  0.37887561  0.98287056    -1.23300
O553        O  0.22224194  0.05516354  0.60382070    -0.85600
O554        O  0.12271547  0.07994774  0.60235985    -0.82600
C555        C  0.07863986  0.08996057  0.59277914     0.97900
O556        O  0.06734254  0.08967679  0.56395103    -0.82700
O557        O  0.14026352  0.12930039  0.53915469    -0.85300
C558        C  0.18537270  0.13925435  0.53217975     1.02400
O559        O  0.22209976  0.12106569  0.52451069    -0.78100
O560        O  0.25177340  0.09539815  0.57986075    -0.78300
C561        C  0.24845364  0.07969547  0.60418441     1.02400
O562        O  0.18840574  0.01154092  0.55874633    -0.85600
O563        O  0.08629482  0.03072870  0.56278233    -0.82600
C564        C  0.07136495  0.02756277  0.53482964     0.97900
O565        O  0.08758692  0.04638955  0.51470135    -0.82700
O566        O  0.15414897  0.08993527  0.48655846    -0.85300
C567        C  0.19607457  0.07660649  0.97687942     1.02400
O568        O  0.22514881  0.06215462  0.49580828    -0.78100
O569        O  0.26299512  0.03542206  0.55013561    -0.78200
C570        C  0.23722613  0.01077882  0.55373744     1.02300
Cr571      Cr  0.15591520  0.04621874  0.57958881     1.93700
Cr572      Cr  0.11596885  0.08755551  0.52733541     1.93200
Cr573      Cr  0.23573230  0.07780336  0.53834381     1.39100
O574        O  0.16932602  0.07044186  0.54812354    -1.23300
O575        O  0.81250385  0.06508779  0.66915750    -0.85600
O576        O  0.91383383  0.05167953  0.68820929    -0.82600
C577        C  0.92833809  0.07912388  0.68810543     0.97900
O578        O  0.91533213  0.09664720  0.70992936    -0.82700
O579        O  0.85038556  0.12220355  0.75374024    -0.85300
C580        C  0.81103999  0.13350941  0.73904636     1.02400
O581        O  0.77677955  0.11674749  0.72612068    -0.78100
O582        O  0.73721825  0.06918816  0.69278766    -0.78300
C583        C  0.76481766  0.07381590  0.66906424     1.02400
O584        O  0.77576589  0.01441537  0.70422930    -0.85600
O585        O  0.87767566  0.00707552  0.72965875    -0.82600
C586        C  0.91954120  0.01424135  0.74461451     0.97900
O587        O  0.93043922  0.04236334  0.74943602    -0.82700
O588        O  0.85991374  0.06852833  0.79101772    -0.85300
C589        C  0.81475882  0.07631799  0.80059169     1.02400
O590        O  0.77683753  0.08185696  0.78180750    -0.78100
O591        O  0.74705805  0.03063016  0.74851654    -0.78200
C592        C  0.75030840  0.00967979  0.72855963     1.02300
Cr593      Cr  0.84360560  0.03647170  0.70005878     1.93700
Cr594      Cr  0.88514670  0.08091980  0.74946463     1.93200
Cr595      Cr  0.76443848  0.07359390  0.73693739     1.39100
O596        O  0.83118414  0.06342894  0.72953296    -1.23300
O597        O  0.32299975  0.12420261  0.85841256    -0.85600
O598        O  0.42323938  0.13515732  0.83806828    -0.82600
C599        C  0.43975524  0.10802140  0.83562850     0.97900
O600        O  0.42270644  0.09099948  0.81421700    -0.82700
O601        O  0.35429304  0.06867233  0.76967021    -0.85300
C602        C  0.31507053  0.05695082  0.78283959     1.02400
O603        O  0.28245602  0.07315765  0.79750520    -0.78100
O604        O  0.24675820  0.12051620  0.83363193    -0.78300
C605        C  0.27481184  0.11664659  0.85806097     1.02400
O606        O  0.28515162  0.17630365  0.82374646    -0.85600
O607        O  0.38457169  0.18170187  0.79778832    -0.82600
C608        C  0.42529115  0.17448440  0.78266783     0.97900
O609        O  0.43610841  0.14645409  0.77771372    -0.82700
O610        O  0.36135740  0.12464130  0.73575631    -0.85300
C611        C  0.31629366  0.11666002  0.72573280     1.02400
O612        O  0.27942153  0.11041489  0.74400878    -0.78100
O613        O  0.25187205  0.16074995  0.77961163    -0.78200
C614        C  0.25594906  0.18115514  0.80018999     1.02300
Cr615      Cr  0.35258072  0.15237438  0.82718344     1.93700
Cr616      Cr  0.38959628  0.10913072  0.77606507     1.93200
Cr617      Cr  0.27017139  0.11717655  0.78925114     1.39100
O618        O  0.33742730  0.12620629  0.79714792    -1.23300
O619        O  0.69792770  0.13110315  0.91642178    -0.85600
O620        O  0.59732609  0.14258013  0.93527633    -0.82600
C621        C  0.58278099  0.11503001  0.93543348     0.97900
O622        O  0.59628071  0.09766480  0.95756927    -0.82700
O623        O  0.66311063  0.07203142  0.00117444    -0.85300
C624        C  0.69989507  0.06058347  0.98531467     1.02400
O625        O  0.73324677  0.07753662  0.97244213    -0.78100
O626        O  0.77333534  0.12641172  0.94156245    -0.78300
C627        C  0.74539357  0.12192339  0.91739322     1.02400
O628        O  0.73554291  0.18174230  0.95415188    -0.81600
O629        O  0.63375519  0.18733722  0.97784947    -0.82600
C630        C  0.59228727  0.17969619  0.99197064     0.97900
O631        O  0.58182498  0.15125218  0.49653402    -0.82700
O632        O  0.65501523  0.12605399  0.53872839    -0.85300
C633        C  0.70047689  0.11796039  0.54861220     1.02400
O634        O  0.73661301  0.11115569  0.52988992    -0.78100
O635        O  0.76588190  0.16254297  0.99793052    -0.78200
C636        C  0.76227490  0.18460602  0.97903757     1.02300
Cr637      Cr  0.66755316  0.15873865  0.94809464     1.93700
Cr638      Cr  0.62824413  0.11335789  0.99701895     1.93200
Cr639      Cr  0.74755601  0.12017516  0.98494966     1.39100
O640        O  0.68099638  0.13106474  0.97727320    -1.23300
C641        C  0.48214521  0.09834353  0.85713752    -0.00400
C642        C  0.46829060  0.08584398  0.88585756    -0.12300
C643        C  0.50259079  0.08844067  0.91173730     0.01800
C644        C  0.55085904  0.10417231  0.90873589    -0.00500
C645        C  0.56652841  0.11380197  0.87927934    -0.12200
C646        C  0.53280248  0.11091320  0.85356318     0.01700
H647        H  0.42880458  0.07670650  0.88875699     0.14700
H648        H  0.60409569  0.12542519  0.87670736     0.14700
C649        C  0.54855870  0.12418245  0.82447710     0.36400
C650        C  0.48501417  0.07785423  0.94148410     0.36300
N651        N  0.56109200  0.13495388  0.80124758    -0.44000
N652        N  0.47082900  0.06932823  0.96530980    -0.44000
C653        C  0.76780897  0.10592414  0.89024648    -0.00400
C654        C  0.81874221  0.11319258  0.88002273    -0.12300
C655        C  0.83767946  0.10115458  0.85206463     0.01800
C656        C  0.80507783  0.08171119  0.83387014    -0.00500
C657        C  0.75635246  0.07240771  0.84560744    -0.12200
C658        C  0.73806550  0.08378297  0.87372552     0.01700
H659        H  0.84255683  0.12955836  0.89296324     0.14700
H660        H  0.73145903  0.05703360  0.83211654     0.14700
C661        C  0.68942736  0.07154876  0.88550307     0.36400
C662        C  0.88817075  0.11151368  0.84108568     0.36300
N663        N  0.65111916  0.06092846  0.89498748    -0.44000
N664        N  0.92852329  0.11986644  0.83214904    -0.44000
C665        C  0.74293047  0.08966012  0.64097723    -0.00400
C666        C  0.77812338  0.10714193  0.62352001    -0.12300
C667        C  0.76329626  0.11903893  0.59455233     0.01800
C668        C  0.71204471  0.11354781  0.58219217    -0.00500
C669        C  0.67489301  0.09885145  0.60092241    -0.12200
C670        C  0.68979870  0.08710554  0.63028947     0.01700
H671        H  0.81813423  0.11093065  0.63223313     0.14700
H672        H  0.63519291  0.09480692  0.59186079     0.14700
C673        C  0.65058876  0.07133459  0.64810179     0.36400
C674        C  0.80200041  0.13635376  0.57773061     0.36300
N675        N  0.61888914  0.05895051  0.66243856    -0.44000
N676        N  0.83307995  0.15026114  0.56436835    -0.44000
C677        C  0.30800340  0.10929792  0.69285340    -0.00400
C678        C  0.31013071  0.07821649  0.68486229    -0.12300
C679        C  0.29351401  0.06828631  0.65557168     0.01800
C680        C  0.27427555  0.08980073  0.63348635    -0.00500
C681        C  0.27512540  0.12126121  0.64093016    -0.12200
C682        C  0.29146101  0.13110728  0.67058540     0.01700
H683        H  0.32297741  0.06143309  0.70208310     0.14700
H684        H  0.26030987  0.13798486  0.62420687     0.14700
C685        C  0.28858880  0.16329887  0.67818486     0.36400
C686        C  0.29620157  0.03581899  0.64901355     0.36300
N687        N  0.28637316  0.18909849  0.68434855    -0.44000
N688        N  0.29836820  0.00981220  0.64380206    -0.44000
C689        C  0.21325166  0.08158622  0.94417077    -0.00400
C690        C  0.18056674  0.09920735  0.92401925    -0.12300
C691        C  0.19887773  0.10998090  0.89548240     0.01800
C692        C  0.25136869  0.10361712  0.88658968    -0.00500
C693        C  0.28298472  0.08453863  0.90569423    -0.12200
C694        C  0.26436246  0.07307632  0.93383681     0.01700
H695        H  0.14111387  0.10577996  0.93108229     0.14700
H696        H  0.32276372  0.07859821  0.89862474     0.14700
C697        C  0.29935249  0.05302995  0.95151509     0.36400
C698        C  0.16389752  0.12903304  0.87673061     0.36300
N699        N  0.32686654  0.03660466  0.46531644    -0.44000
N700        N  0.13580689  0.14424385  0.86166624    -0.44000
C701        C  0.03717142  0.09623202  0.61561854    -0.00400
C702        C  0.98634894  0.08555449  0.60837201    -0.12300
C703        C  0.94950107  0.08099652  0.63147756     0.01800
C704        C  0.96180233  0.08937981  0.66248014    -0.00500
C705        C  0.01056363  0.10334851  0.66921177    -0.12200
C706        C  0.04885236  0.10612248  0.64621527     0.01700
H707        H  0.97716314  0.07751081  0.58510031     0.14700
H708        H  0.02049130  0.10962325  0.69291976     0.14700
C709        C  0.10062335  0.11747037  0.65498607     0.36400
C710        C  0.90163038  0.06505765  0.62258663     0.36300
N711        N  0.14221314  0.12635124  0.66209499    -0.44000
N712        N  0.86458610  0.05170602  0.61419126    -0.44000
C713        C  0.73550881  0.46496116  0.97686950    -0.00400
C714        C  0.71250506  0.47555163  0.00417065    -0.12300
C715        C  0.69769696  0.50650862  0.00709064     0.01800
C716        C  0.70542323  0.02701764  0.98214366    -0.00500
C717        C  0.72433475  0.01560201  0.95407560    -0.12200
C718        C  0.73962492  0.48491187  0.95132424     0.01700
H719        H  0.71071763  0.46042134  0.52426787     0.14700
H720        H  0.73010760  0.03103861  0.93473822     0.14700
C721        C  0.76009431  0.47448724  0.92208441     0.36400
C722        C  0.67932500  0.01710981  0.53699095     0.36300
N723        N  0.77625994  0.46612865  0.89863206    -0.44000
N724        N  0.66389909  0.02550049  0.56060937    -0.44000
C725        C  0.78799747  0.21432222  0.98570417    -0.00400
C726        C  0.81437798  0.22951693  0.96181819    -0.12300
C727        C  0.83182519  0.25979390  0.96554561     0.01800
C728        C  0.82212802  0.27548908  0.99344061    -0.00500
C729        C  0.79721037  0.26000736  0.01763824    -0.12200
C730        C  0.78057958  0.22958388  0.01411771     0.01700
H731        H  0.81966824  0.21805636  0.93979088     0.14700
H732        H  0.79247432  0.27209565  0.53943410     0.14700
C733        C  0.75491459  0.21562024  0.53963806     0.36400
C734        C  0.85538309  0.27511698  0.93955704     0.36300
N735        N  0.73293888  0.20423053  0.55987881    -0.44000
N736        N  0.87406040  0.28751049  0.91875097    -0.44000
C737        C  0.97013193  0.45077646  0.50798138    -0.00400
C738        C  0.97569135  0.45927280  0.53924931    -0.12300
C739        C  0.00718097  0.48435705  0.54844984     0.01800
C740        C  0.03506825  0.50171953  0.52613610    -0.00500
C741        C  0.02976999  0.49257120  0.99487368    -0.12200
C742        C  0.99814456  0.46760780  0.98569392     0.01700
H743        H  0.95447877  0.44659983  0.55668265     0.14700
H744        H  0.05103168  0.50515223  0.97739094     0.14700
C745        C  0.99656770  0.46017242  0.95307662     0.36400
C746        C  0.00538125  0.99361664  0.58073013     0.36300
N747        N  0.99540369  0.45432915  0.92692211    -0.44000
N748        N  0.00489951  0.00057692  0.60659202    -0.44000
C749        C  0.27503812  0.46219591  0.78220184    -0.00400
C750        C  0.24636397  0.48308228  0.76349324    -0.12300
C751        C  0.26106690  0.01386531  0.76190821     0.01800
C752        C  0.30506986  0.02406574  0.77941868    -0.00500
C753        C  0.33695662  0.50271111  0.79574512    -0.12200
C754        C  0.32235290  0.47173712  0.79713603     0.01700
H755        H  0.21055893  0.47571929  0.75142091     0.14700
H756        H  0.37146602  0.51057813  0.80872429     0.14700
C757        C  0.35382203  0.45098741  0.81612366     0.36400
C758        C  0.22921262  0.03469618  0.74314571     0.36300
N759        N  0.37916381  0.43437684  0.83131830    -0.44000
N760        N  0.20372923  0.05125767  0.72797352    -0.44000
C761        C  0.22804788  0.21123350  0.79710946    -0.00400
C762        C  0.21346146  0.22234604  0.76749023    -0.12300
C763        C  0.19584360  0.25274563  0.76341525     0.01800
C764        C  0.19297605  0.27244690  0.78918831    -0.00500
C765        C  0.20342218  0.26085914  0.81887122    -0.12200
C766        C  0.22020422  0.23050318  0.82313832     0.01700
H767        H  0.21793122  0.20776863  0.74736033     0.14700
H768        H  0.20028705  0.27594424  0.83874857     0.14700
C769        C  0.22923055  0.22000205  0.85458100     0.36400
C770        C  0.18098049  0.26333369  0.73271772     0.36300
N771        N  0.23627538  0.21160028  0.87978419    -0.44000
N772        N  0.16830887  0.27172225  0.70820303    -0.44000
C773        C  0.03604300  0.44367872  0.76960504    -0.00400
C774        C  0.03423777  0.47162109  0.78592439    -0.12300
C775        C  0.99605401  0.49433143  0.77893608     0.01800
C776        C  0.95802439  0.48965738  0.75486230    -0.00500
C777        C  0.95887128  0.46140518  0.73905204    -0.12200
C778        C  0.99712529  0.43862185  0.74612317     0.01700
H779        H  0.06302303  0.47588883  0.80438084     0.14700
H780        H  0.92992885  0.45717592  0.72067643     0.14700
C781        C  0.99421923  0.40995462  0.72952327     0.36400
C782        C  0.99614939  0.52182963  0.79758992     0.36300
N783        N  0.99166661  0.38693920  0.71626891    -0.44000
N784        N  0.99743016  0.04424218  0.81192540    -0.44000
C785        C  0.05001463  0.35735580  0.86850131    -0.00400
C786        C  0.06710560  0.36126181  0.89952159    -0.12300
C787        C  0.03127304  0.36095922  0.92381661     0.01800
C788        C  0.97687407  0.35625706  0.91733652    -0.00500
C789        C  0.96072666  0.34915725  0.88683914    -0.12200
C790        C  0.99638891  0.34978286  0.86248482     0.01700
H791        H  0.10831269  0.36635028  0.90482048     0.14700
H792        H  0.91924182  0.34472895  0.88165780     0.14700
C793        C  0.97568155  0.34431012  0.83156704     0.36400
C794        C  0.05116069  0.36804401  0.95458067     0.36300
N795        N  0.95894792  0.33999985  0.80680903    -0.44000
N796        N  0.06725810  0.37377957  0.97917477    -0.44000
C797        C  0.23728006  0.23203399  0.54093787    -0.00400
C798        C  0.23923297  0.21748069  0.51207311    -0.12300
C799        C  0.22023319  0.18759015  0.50831968     0.01800
C800        C  0.19686508  0.17232862  0.53342959    -0.00500
C801        C  0.19136550  0.18775049  0.56166851    -0.12200
C802        C  0.21213670  0.21721177  0.56578245     0.01700
H803        H  0.25866106  0.22870754  0.49297717     0.14700
H804        H  0.17386732  0.17601761  0.58112044     0.14700
C805        C  0.20848598  0.23143547  0.59590807     0.36400
C806        C  0.22683583  0.17265797  0.47881154     0.36300
N807        N  0.20478002  0.24349406  0.11939100    -0.44000
N808        N  0.23252277  0.16076013  0.45515906    -0.44000
C809        C  0.30194973  0.41991888  0.54767317    -0.00400
C810        C  0.26749776  0.42778066  0.57159923    -0.12300
C811        C  0.24806556  0.45752182  0.57468205     0.01800
C812        C  0.26350644  0.48054877  0.55373879    -0.00500
C813        C  0.30081157  0.47351692  0.53113951    -0.12200
C814        C  0.31987883  0.44338841  0.52774133     0.01700
H815        H  0.25431210  0.41038999  0.58766423     0.14700
H816        H  0.31287001  0.49117965  0.51508420     0.14700
C817        C  0.35513771  0.43714412  0.50256375     0.36400
C818        C  0.21169487  0.46358807  0.59946455     0.36300
N819        N  0.38258706  0.43233778  0.98186844    -0.44000
N820        N  0.18238122  0.46840089  0.61918774    -0.44000
C821        C  0.55217017  0.20340345  0.50193736    -0.00400
C822        C  0.56712313  0.23445599  0.50313139    -0.12300
C823        C  0.53119933  0.25767002  0.51175733     0.01800
C824        C  0.47811852  0.25026622  0.51876408    -0.00500
C825        C  0.46338479  0.21923003  0.51756549    -0.12200
C826        C  0.49933245  0.19603109  0.50960998     0.01700
H827        H  0.60747336  0.24067446  0.49780172     0.14700
H828        H  0.42318850  0.21281711  0.52305373     0.14700
C829        C  0.47993787  0.16492571  0.50938886     0.36400
C830        C  0.55100537  0.28853529  0.51446223     0.36300
N831        N  0.46423781  0.14004378  0.50941938    -0.44000
N832        N  0.56749861  0.31314468  0.51672000    -0.44000
C833        C  0.25697762  0.32725038  0.63934158    -0.00400
C834        C  0.21243750  0.34698906  0.63891767    -0.12300
C835        C  0.19183803  0.35868177  0.66659180     0.01800
C836        C  0.21647762  0.35095853  0.69509198    -0.00500
C837        C  0.25987029  0.33073409  0.69556638    -0.12200
C838        C  0.27970266  0.31849940  0.66825334     0.01700
H839        H  0.19452327  0.35393231  0.61693884     0.14700
H840        H  0.27789298  0.32399766  0.71761344     0.14700
C841        C  0.32214406  0.29616969  0.67083565     0.36400
C842        C  0.14693618  0.37933270  0.66520984     0.36300
N843        N  0.35597215  0.27818587  0.67295209    -0.44000
N844        N  0.11097922  0.39594195  0.66412556    -0.44000
C845        C  0.27571504  0.36136419  0.88315397    -0.00400
C846        C  0.25703065  0.37804273  0.90853082    -0.12300
C847        C  0.27054182  0.36987293  0.93898858     0.01800
C848        C  0.30540736  0.34483408  0.94510431    -0.00500
C849        C  0.32557984  0.32849505  0.91983304    -0.12200
C850        C  0.31016322  0.33603655  0.88910748     0.01700
H851        H  0.22997031  0.39718358  0.90471455     0.14700
H852        H  0.35187012  0.30910767  0.92412708     0.14700
C853        C  0.32945380  0.31695550  0.86440405     0.36400
C854        C  0.24724871  0.38782065  0.96342792     0.36300
N855        N  0.34454056  0.30142425  0.84467314    -0.44000
N856        N  0.22614945  0.40145183  0.48268495    -0.44000
C857        C  0.80407004  0.16683658  0.73700277    -0.00400
C858        C  0.80119616  0.18016237  0.70750740    -0.12300
C859        C  0.78671259  0.21091219  0.70381818     0.01800
C860        C  0.77389688  0.22864827  0.73005245    -0.00500
C861        C  0.78033102  0.21583315  0.75973368    -0.12200
C862        C  0.79499368  0.18499908  0.76338928     0.01700
H863        H  0.80887285  0.16623520  0.68724118     0.14700
H864        H  0.77029332  0.22925763  0.77995472     0.14700
C865        C  0.79535930  0.17196026  0.79413021     0.36400
C866        C  0.78474991  0.22357500  0.67284920     0.36300
N867        N  0.79487265  0.16187804  0.81892057    -0.44000
N868        N  0.78326847  0.23377875  0.64807564    -0.44000
C869        C  0.70000710  0.41652037  0.73642100    -0.00400
C870        C  0.70024864  0.43501800  0.76304457    -0.12300
C871        C  0.71334644  0.46620483  0.76126693     0.01800
C872        C  0.72569644  0.47918354  0.73225922    -0.00500
C873        C  0.72071679  0.46097866  0.70549394    -0.12200
C874        C  0.70861098  0.42999144  0.70733275     0.01700
H875        H  0.69298942  0.42474289  0.78545714     0.14700
H876        H  0.72837894  0.47067599  0.68287063     0.14700
C877        C  0.70551837  0.41261280  0.67887792     0.36400
C878        C  0.71659882  0.98357446  0.78969112     0.36300
N879        N  0.70303427  0.39895759  0.65594219    -0.44000
N880        N  0.71902141  0.99721389  0.81264602    -0.44000
C881        C  0.53902961  0.24448738  0.75836897    -0.00400
C882        C  0.53840692  0.21610861  0.74282495    -0.12300
C883        C  0.50090139  0.19354565  0.74942764     0.01800
C884        C  0.46292114  0.19871191  0.77261581    -0.00500
C885        C  0.46280786  0.22724759  0.78776323    -0.12200
C886        C  0.50000014  0.24997880  0.78090634     0.01700
H887        H  0.56686106  0.21158960  0.72486695     0.14700
H888        H  0.43410337  0.23170523  0.80559990     0.14700
C889        C  0.49733386  0.27838649  0.79795416     0.36400
C890        C  0.50160738  0.16578354  0.73117273     0.36300
N891        N  0.49482393  0.30111191  0.81168717    -0.44000
N892        N  0.50223371  0.14365443  0.71639309    -0.44000
C893        C  0.75161656  0.35571783  0.89287601    -0.00400
C894        C  0.71092982  0.33386497  0.88976915    -0.12300
C895        C  0.69430542  0.32308692  0.86035548     0.01800
C896        C  0.71900313  0.33400425  0.83341186    -0.00500
C897        C  0.76089575  0.35491817  0.83692724    -0.12200
C898        C  0.77727643  0.36570497  0.86588015     0.01700
H899        H  0.69160836  0.32546240  0.91029894     0.14700
H900        H  0.78083194  0.36362956  0.81672052     0.14700
C901        C  0.82160911  0.38655313  0.86679349     0.36400
C902        C  0.65293818  0.30045377  0.85858860     0.36300
N903        N  0.85712271  0.40321233  0.86720290    -0.44000
N904        N  0.61993725  0.28218175  0.85719859    -0.44000
C905        C  0.74673308  0.33245757  0.63728663    -0.00400
C906        C  0.79746481  0.34590149  0.63754689    -0.12300
C907        C  0.81855843  0.35878276  0.61060011     0.01800
C908        C  0.78827761  0.35915153  0.58282808    -0.00500
C909        C  0.73769444  0.34593830  0.58254781    -0.12200
C910        C  0.71725835  0.33215023  0.60902864     0.01700
H911        H  0.82078750  0.34652004  0.65889190     0.14700
H912        H  0.71492576  0.34498366  0.56098382     0.14700
C913        C  0.66739449  0.31630820  0.60574525     0.36400
C914        C  0.87078688  0.37202717  0.61216417     0.36300
N915        N  0.62779995  0.30327488  0.60296727    -0.44000
N916        N  0.91263364  0.38268450  0.61345764    -0.44000
C917        C  0.46909027  0.34712679  0.61700806    -0.00400
C918        C  0.44542060  0.34267029  0.64583315    -0.12300
C919        C  0.47574305  0.34313476  0.67328665     0.01800
C920        C  0.53061503  0.34803905  0.67193959    -0.00500
C921        C  0.55301392  0.35630974  0.64361824    -0.12200
C922        C  0.52252763  0.35601600  0.61609863     0.01700
H923        H  0.40397450  0.33648966  0.64669395     0.14700
H924        H  0.59539901  0.36006396  0.64255980     0.14700
C925        C  0.54806842  0.36189838  0.58711269     0.36400
C926        C  0.45086555  0.33574014  0.70218073     0.36300
N927        N  0.56891212  0.36677935  0.56400624    -0.44000
N928        N  0.43091727  0.32994906  0.72536182    -0.44000
O929        O  0.75519895  0.81626399  0.19032088    -0.85600
O930        O  0.72293877  0.86574416  0.22401572    -0.82600
C931        C  0.69372849  0.88319088  0.23961833     0.97900
O932        O  0.66056464  0.87235478  0.25821579    -0.82700
O933        O  0.58459646  0.85075541  0.21808871    -0.85300
C934        C  0.56607298  0.83477971  0.19622518     1.02400
O935        O  0.57820650  0.80684808  0.19397819    -0.78100
O936        O  0.67624536  0.81416035  0.16923660    -0.78300
C937        C  0.72475124  0.82024042  0.16700907     1.02400
O938        O  0.75503231  0.77979273  0.24632611    -0.85600
O939        O  0.73469397  0.83212578  0.28000156    -0.82600
C940        C  0.70249603  0.82633355  0.30126419     0.97900
O941        O  0.65607530  0.81748211  0.29439470    -0.82700
O942        O  0.57232935  0.79607431  0.25621352    -0.85300
C943        C  0.57913541  0.76791224  0.24964403     1.02400
O944        O  0.61789967  0.75978261  0.23339071    -0.78100
O945        O  0.71464332  0.76235108  0.20462627    -0.78200
C946        C  0.74707073  0.75857449  0.22701404     1.02300
Cr947      Cr  0.73699332  0.82266728  0.23505842     1.93700
Cr948      Cr  0.62168581  0.83245547  0.25500217     1.93200
Cr949      Cr  0.64850790  0.78769134  0.20249504     1.39100
O950        O  0.66898625  0.81394473  0.23134718    -1.23300
O951        O  0.25326976  0.81574012  0.08498988    -0.85600
O952        O  0.28518281  0.86749834  0.05605600    -0.82600
C953        C  0.31469645  0.88689571  0.04351440     0.97900
O954        O  0.35286378  0.87818328  0.02698933    -0.82700
O955        O  0.42477690  0.85323166  0.06807131    -0.85300
C956        C  0.44061146  0.83552451  0.08940985     1.02400
O957        O  0.43094949  0.80728921  0.08788951    -0.78100
O958        O  0.33012955  0.81164831  0.10874678    -0.78300
C959        C  0.28132139  0.81760603  0.10953348     1.02400
O960        O  0.26145849  0.78297282  0.02680017    -0.85600
O961        O  0.28280324  0.83812760  0.99750758    -0.82600
C962        C  0.31872862  0.83539302  0.47770657     0.97900
O963        O  0.36502855  0.82721512  0.98584762    -0.82700
O964        O  0.44506338  0.80217720  0.02545026    -0.85300
C965        C  0.43838587  0.77343967  0.02905585     1.02400
O966        O  0.39798347  0.76383752  0.04285355    -0.78100
O967        O  0.29808726  0.76271593  0.06852048    -0.78200
C968        C  0.26706305  0.76071711  0.04529921     1.02300
Cr969      Cr  0.27598615  0.82524686  0.04155192     1.93700
Cr970      Cr  0.39350942  0.83826438  0.02803385     1.93200
Cr971      Cr  0.36272140  0.78847241  0.07480732     1.39100
O972        O  0.34414099  0.81708917  0.04756019    -1.23300
O973        O  0.25804073  0.85209879  0.32901819    -0.85600
O974        O  0.22475048  0.82170445  0.27684602    -0.82600
C975        C  0.18614114  0.80582049  0.28566946     0.97900
O976        O  0.14251854  0.81814378  0.29227694    -0.82700
O977        O  0.07534203  0.86201317  0.31527781    -0.85300
C978        C  0.08868904  0.86464526  0.34369083     1.02400
O979        O  0.13274844  0.87613171  0.35105756    -0.78100
O980        O  0.23457546  0.89632192  0.34756446    -0.78300
C981        C  0.25603107  0.87025534  0.35157983     1.02400
O982        O  0.27341638  0.90799414  0.29212004    -0.85600
O983        O  0.23114292  0.87691637  0.24201230    -0.82600
C984        C  0.19891148  0.86209782  0.22527595     0.97900
O985        O  0.15596342  0.85215541  0.23620949    -0.82700
O986        O  0.09250031  0.89938690  0.26104952    -0.85300
C987        C  0.07771675  0.92022499  0.27941940     1.02400
O988        O  0.09744744  0.92110736  0.30659647    -0.78100
O989        O  0.20085549  0.93542638  0.29708067    -0.78200
C990        C  0.24899715  0.93353308  0.29040246     1.02300
Cr991      Cr  0.24212663  0.86565479  0.28580453     1.93700
Cr992      Cr  0.12068263  0.85937269  0.27729456     1.93200
Cr993      Cr  0.16725765  0.90517601  0.32344889     1.39100
O994        O  0.17660195  0.87668110  0.29518766    -1.23300
O995        O  0.76300785  0.85176747  0.44815717    -0.85600
O996        O  0.79134823  0.82563133  0.50342692    -0.82600
C997        C  0.83052952  0.80912063  0.49614027     0.97900
O998        O  0.87512598  0.82094238  0.49104685    -0.82700
O999        O  0.94593188  0.86359672  0.46920349    -0.85300
C1000       C  0.93632972  0.86356062  0.44024267     1.02400
O1001       O  0.89199127  0.87265374  0.43003264    -0.78100
O1002       O  0.78980918  0.89364841  0.42639923    -0.78300
C1003       C  0.76897166  0.86754319  0.42408542     1.02400
O1004       O  0.74298118  0.91048507  0.47958079    -0.85600
O1005       O  0.77855329  0.88289422  0.03365111    -0.82600
C1006       C  0.80863575  0.86870767  0.05253219     0.97900
O1007       O  0.85314586  0.85837396  0.04395280    -0.82700
O1008       O  0.91765334  0.90512429  0.01848493    -0.85300
C1009       C  0.93424477  0.92449375  0.49921603     1.02400
O1010       O  0.91964149  0.92197615  0.47115496    -0.78100
O1011       O  0.81510718  0.93756313  0.47276942    -0.78200
C1012       C  0.76612661  0.93614434  0.47717899     1.02300
Cr1013     Cr  0.77403505  0.86873682  0.49059665     1.93700
Cr1014     Cr  0.89443342  0.86320375  0.50450812     1.93200
Cr1015     Cr  0.85320387  0.90449878  0.45240269     1.39100
O1016       O  0.84040628  0.87903057  0.48296360    -1.23300
O1017       O  0.22183243  0.55530031  0.10390307    -0.85600
O1018       O  0.12227181  0.58004359  0.10214944    -0.82600
C1019       C  0.07816771  0.58994096  0.09249128     0.97900
O1020       O  0.06696869  0.58954355  0.06365586    -0.82700
O1021       O  0.13998560  0.62924553  0.03887662    -0.85300
C1022       C  0.18513852  0.63922172  0.03197476     1.02400
O1023       O  0.22195042  0.62103189  0.02444437    -0.78100
O1024       O  0.25146586  0.59546771  0.07987822    -0.78300
C1025       C  0.24806681  0.57981928  0.10423479     1.02400
O1026       O  0.18842129  0.51149831  0.05896006    -0.85600
O1027       O  0.08622717  0.53062143  0.06265848    -0.82600
C1028       C  0.07150700  0.52728537  0.03469089     0.97900
O1029       O  0.08764617  0.54613488  0.01454942    -0.82700
O1030       O  0.15415060  0.58973970  0.98642169    -0.85300
C1031       C  0.19586095  0.57674091  0.47692781     1.02400
O1032       O  0.22531396  0.56212553  0.99577734    -0.78100
O1033       O  0.26291347  0.53545745  0.05022512    -0.78200
C1034       C  0.23723611  0.51079382  0.05391276     1.02300
Cr1035     Cr  0.15568439  0.54624585  0.07956641     1.93700
Cr1036     Cr  0.11583225  0.58740158  0.02713621     1.93200
Cr1037     Cr  0.23561693  0.57780391  0.03834729     1.39100
O1038       O  0.16917843  0.57038657  0.04803899    -1.23300
O1039       O  0.81309839  0.56491924  0.16936515    -0.85600
O1040       O  0.91431317  0.55135685  0.18859125    -0.82600
C1041       C  0.92871020  0.57881664  0.18827523     0.97900
O1042       O  0.91579039  0.59642235  0.21005191    -0.82700
O1043       O  0.85098058  0.62222535  0.25380292    -0.85300
C1044       C  0.81156026  0.63354413  0.23918392     1.02400
O1045       O  0.77724673  0.61679151  0.22629084    -0.78100
O1046       O  0.73772051  0.56924014  0.19288707    -0.78300
C1047       C  0.76542414  0.57367015  0.16915317     1.02400
O1048       O  0.77592151  0.51443664  0.20445269    -0.85600
O1049       O  0.87763990  0.50694458  0.23009889    -0.82600
C1050       C  0.91950484  0.51405642  0.24507756     0.97900
O1051       O  0.93061023  0.54217692  0.24980181    -0.82700
O1052       O  0.86025010  0.56869405  0.29128243    -0.85300
C1053       C  0.81506534  0.57648400  0.30082097     1.02400
O1054       O  0.77712956  0.58191836  0.28200560    -0.78100
O1055       O  0.74723626  0.53069290  0.24871494    -0.78200
C1056       C  0.75043710  0.50972763  0.22877176     1.02300
Cr1057     Cr  0.84391522  0.53633392  0.20037280     1.93700
Cr1058     Cr  0.88555099  0.58086242  0.24966539     1.93200
Cr1059     Cr  0.76479630  0.57363940  0.23710693     1.39100
O1060       O  0.83152746  0.56338922  0.22976987    -1.23300
O1061       O  0.32289103  0.62418724  0.35848130    -0.85600
O1062       O  0.42316379  0.63502394  0.33814690    -0.82600
C1063       C  0.43966621  0.60789273  0.33559323     0.97900
O1064       O  0.42257791  0.59094795  0.31412521    -0.82700
O1065       O  0.35395021  0.56877166  0.26961897    -0.85300
C1066       C  0.31485773  0.55703472  0.28290241     1.02400
O1067       O  0.28231799  0.57322626  0.29763916    -0.78100
O1068       O  0.24661914  0.62062380  0.33372487    -0.78300
C1069       C  0.27466489  0.61671977  0.35814449     1.02400
O1070       O  0.28519621  0.67632889  0.32384024    -0.85600
O1071       O  0.38461889  0.68169273  0.29794612    -0.82600
C1072       C  0.42533303  0.67446352  0.28283378     0.97900
O1073       O  0.43599056  0.64643844  0.27776836    -0.82700
O1074       O  0.36099988  0.62481199  0.23580677    -0.85300
C1075       C  0.31594431  0.61678233  0.22580559     1.02400
O1076       O  0.27916711  0.61044470  0.24411219    -0.78100
O1077       O  0.25180694  0.66079400  0.27971570    -0.78200
C1078       C  0.25600361  0.68120066  0.30028283     1.02300
Cr1079     Cr  0.35255236  0.65234780  0.32728423     1.93700
Cr1080     Cr  0.38936783  0.60918123  0.27605149     1.93200
Cr1081     Cr  0.27001924  0.61723209  0.28935775     1.39100
O1082       O  0.33729832  0.62623598  0.29722040    -1.23300
O1083       O  0.69784959  0.63115198  0.41655179    -0.85600
O1084       O  0.59704437  0.64234764  0.43518338    -0.82600
C1085       C  0.58272328  0.61475525  0.43534462     0.97900
O1086       O  0.59630619  0.59744084  0.45751009    -0.82700
O1087       O  0.66310056  0.57209396  0.50140682    -0.85300
C1088       C  0.70025048  0.56075848  0.48574747     1.02400
O1089       O  0.73348385  0.57781372  0.47291728    -0.78100
O1090       O  0.77316183  0.62665072  0.44184772    -0.78300
C1091       C  0.74536969  0.62207356  0.41762661     1.02400
O1092       O  0.73480894  0.68199084  0.45422478    -0.81600
O1093       O  0.63293528  0.68724567  0.47778487    -0.82600
C1094       C  0.59143119  0.67953762  0.49182443     0.97900
O1095       O  0.58278242  0.65140856  0.99654596    -0.82700
O1096       O  0.65593302  0.62591728  0.03862473    -0.85300
C1097       C  0.70133208  0.61761003  0.04843255     1.02400
O1098       O  0.73732516  0.61074516  0.02963998    -0.78100
O1099       O  0.76506916  0.66301839  0.49809986    -0.78200
C1100       C  0.76147980  0.68499917  0.47911711     1.02300
Cr1101     Cr  0.66706729  0.65873893  0.44811474     1.93700
Cr1102     Cr  0.62782054  0.61331781  0.49701667     1.93200
Cr1103     Cr  0.74719853  0.62054771  0.48524526     1.39100
O1104       O  0.68057278  0.63115999  0.47736864    -1.23300
C1105       C  0.48204421  0.59810964  0.35707286    -0.00400
C1106       C  0.46814655  0.58566443  0.38580805    -0.12300
C1107       C  0.50250805  0.58818747  0.41166832     0.01800
C1108       C  0.55087296  0.60381390  0.40864468    -0.00500
C1109       C  0.56659181  0.61336084  0.37916774    -0.12200
C1110       C  0.53281287  0.61051864  0.35345976     0.01700
H1111       H  0.42859802  0.57662725  0.38873398     0.14700
H1112       H  0.60422942  0.62490227  0.37657709     0.14700
C1113       C  0.54867074  0.62365196  0.32433250     0.36400
C1114       C  0.48491571  0.57763011  0.44142057     0.36300
N1115       N  0.56130297  0.63429741  0.30106375    -0.44000
N1116       N  0.47071911  0.56911343  0.46524681    -0.44000
C1117       C  0.76798134  0.60608372  0.39051548    -0.00400
C1118       C  0.81878548  0.61354362  0.38021891    -0.12300
C1119       C  0.83776894  0.60155164  0.35224220     0.01800
C1120       C  0.80535274  0.58194878  0.33410169    -0.00500
C1121       C  0.75677329  0.57248077  0.34590618    -0.12200
C1122       C  0.73844318  0.58381848  0.37403586     0.01700
H1123       H  0.84242871  0.63003265  0.39310395     0.14700
H1124       H  0.73201846  0.55699658  0.33246104     0.14700
C1125       C  0.68994020  0.57144637  0.38585641     0.36400
C1126       C  0.88804593  0.61215070  0.34116711     0.36300
N1127       N  0.65173822  0.56073154  0.39537804    -0.44000
N1128       N  0.92821156  0.62071733  0.33215391    -0.44000
C1129       C  0.74368650  0.58930263  0.14089671    -0.00400
C1130       C  0.77898403  0.60665655  0.12337463    -0.12300
C1131       C  0.76424678  0.61847637  0.09435363     0.01800
C1132       C  0.71297186  0.61305196  0.08199391    -0.00500
C1133       C  0.67580216  0.59834323  0.10070359    -0.12200
C1134       C  0.69062791  0.58664013  0.13010518     0.01700
H1135       H  0.81899593  0.61043072  0.13209503     0.14700
H1136       H  0.63613363  0.59427324  0.09160542     0.14700
C1137       C  0.65143785  0.57074220  0.14781903     0.36400
C1138       C  0.80303809  0.63569049  0.07749545     0.36300
N1139       N  0.61975094  0.55822522  0.16204904    -0.44000
N1140       N  0.83417581  0.64951410  0.06409226    -0.44000
C1141       C  0.30758762  0.60944034  0.19292215    -0.00400
C1142       C  0.30977774  0.57836744  0.18490898    -0.12300
C1143       C  0.29316756  0.56844247  0.15561578     0.01800
C1144       C  0.27385059  0.58995027  0.13354438    -0.00500
C1145       C  0.27458813  0.62140578  0.14101608    -0.12200
C1146       C  0.29092859  0.63124757  0.17067702     0.01700
H1147       H  0.32269492  0.56158341  0.20211234     0.14700
H1148       H  0.25969993  0.63812379  0.12430836     0.14700
C1149       C  0.28795591  0.66342908  0.17830694     0.36400
C1150       C  0.29598419  0.53598400  0.14903582     0.36300
N1151       N  0.28566269  0.68921967  0.18449994    -0.44000
N1152       N  0.29827853  0.50998238  0.14381809    -0.44000
C1153       C  0.21303013  0.58172401  0.44423064    -0.00400
C1154       C  0.18033606  0.59931617  0.42406343    -0.12300
C1155       C  0.19866988  0.61007945  0.39552910     0.01800
C1156       C  0.25118727  0.60373166  0.38666973    -0.00500
C1157       C  0.28281307  0.58469165  0.40579871    -0.12200
C1158       C  0.26417836  0.57324156  0.43393184     0.01700
H1159       H  0.14086438  0.60586800  0.43111065     0.14700
H1160       H  0.32261504  0.57877034  0.39875539     0.14700
C1161       C  0.29922539  0.55325521  0.45164433     0.36400
C1162       C  0.16367872  0.62909257  0.37674293     0.36300
N1163       N  0.32679807  0.53631117  0.96508144    -0.44000
N1164       N  0.13557444  0.64426895  0.36165117    -0.44000
C1165       C  0.03661047  0.59614638  0.11528841    -0.00400
C1166       C  0.98610984  0.58484586  0.10830002    -0.12300
C1167       C  0.94955111  0.58020142  0.13155353     0.01800
C1168       C  0.96183063  0.58901790  0.16244407    -0.00500
C1169       C  0.01016771  0.60360089  0.16886687    -0.12200
C1170       C  0.04815611  0.60655406  0.14571599     0.01700
H1171       H  0.97704174  0.57644238  0.08514462     0.14700
H1172       H  0.02004834  0.61029225  0.19246177     0.14700
C1173       C  0.09952597  0.61871128  0.15412879     0.36400
C1174       C  0.90197130  0.56384590  0.12292857     0.36300
N1175       N  0.14079723  0.62827630  0.16091956    -0.44000
N1176       N  0.86511495  0.55019533  0.11475972    -0.44000
C1177       C  0.73658213  0.96525276  0.47716976    -0.00400
C1178       C  0.71371870  0.97577214  0.50454876    -0.12300
C1179       C  0.69865353  0.00668885  0.50752400     0.01800
C1180       C  0.70629617  0.52721168  0.48266385    -0.00500
C1181       C  0.72513651  0.51585103  0.45455879    -0.12200
C1182       C  0.74045672  0.98525496  0.45165010     0.01700
H1183       H  0.70866417  0.96019917  0.02370348     0.14700
H1184       H  0.73058180  0.53130213  0.43519714     0.14700
C1185       C  0.76108115  0.97497189  0.42239986     0.36400
C1186       C  0.67801368  0.51696024  0.03646167     0.36300
N1187       N  0.77741397  0.96674489  0.39894200    -0.44000
N1188       N  0.66225606  0.52537708  0.05999242    -0.44000
C1189       C  0.78740546  0.71472021  0.48561337    -0.00400
C1190       C  0.81266785  0.73009412  0.46141178    -0.12300
C1191       C  0.83053686  0.76028766  0.46512380     0.01800
C1192       C  0.82244566  0.77572637  0.49334257    -0.00500
C1193       C  0.79866571  0.76008595  0.51782868    -0.12200
C1194       C  0.78161489  0.72973668  0.51431773     0.01700
H1195       H  0.81680500  0.71883333  0.43918564     0.14700
H1196       H  0.78989207  0.77224468  0.03895913     0.14700
C1197       C  0.75279456  0.71563701  0.03898282     0.36400
C1198       C  0.85290456  0.77580430  0.43887953     0.36300
N1199       N  0.72988428  0.70426843  0.05886980    -0.44000
N1200       N  0.87063630  0.78834756  0.41787196    -0.44000
C1201       C  0.96991973  0.95053937  0.00792107    -0.00400
C1202       C  0.97549330  0.95910088  0.03916694    -0.12300
C1203       C  0.00729581  0.98406706  0.04834500     0.01800
C1204       C  0.03530160  0.00135638  0.02601464    -0.00500
C1205       C  0.03089359  0.99233253  0.49513913    -0.12200
C1206       C  0.99947940  0.96728063  0.48601726     0.01700
H1207       H  0.95407720  0.94655653  0.05660753     0.14700
H1208       H  0.05315973  0.00444381  0.47775609     0.14700
C1209       C  0.99916706  0.95920804  0.45355621     0.36400
C1210       C  0.00920666  0.49138683  0.08099802     0.36300
N1211       N  0.99894881  0.95287785  0.42752013    -0.44000
N1212       N  0.01046574  0.49742859  0.10710500    -0.44000
C1213       C  0.27570118  0.96225370  0.28227499    -0.00400
C1214       C  0.24708209  0.98304552  0.26343455    -0.12300
C1215       C  0.26101156  0.51387812  0.26201339     0.01800
C1216       C  0.30494060  0.52414932  0.27953900    -0.00500
C1217       C  0.33720017  0.00291322  0.29599378    -0.12200
C1218       C  0.32277190  0.97191771  0.29738963     0.01700
H1219       H  0.21143532  0.97558685  0.25126153     0.14700
H1220       H  0.37151657  0.01087693  0.30908885     0.14700
C1221       C  0.35411088  0.95128109  0.31657762     0.36400
C1222       C  0.22908655  0.53465009  0.24322524     0.36300
N1223       N  0.37935611  0.93477491  0.33194343    -0.44000
N1224       N  0.20353671  0.55116097  0.22803424    -0.44000
C1225       C  0.22827802  0.71131058  0.29717507    -0.00400
C1226       C  0.21365930  0.72237678  0.26754365    -0.12300
C1227       C  0.19626085  0.75280357  0.26341688     0.01800
C1228       C  0.19366051  0.77256179  0.28915095    -0.00500
C1229       C  0.20413681  0.76103492  0.31884963    -0.12200
C1230       C  0.22069257  0.73065682  0.32317158     0.01700
H1231       H  0.21793917  0.70773840  0.24744299     0.14700
H1232       H  0.20117655  0.77617781  0.33869375     0.14700
C1233       C  0.22976320  0.72022062  0.35463294     0.36400
C1234       C  0.18134845  0.76335804  0.23271487     0.36300
N1235       N  0.23684402  0.71187919  0.37985344    -0.44000
N1236       N  0.16863937  0.77172151  0.20819768    -0.44000
C1237       C  0.03626245  0.94358189  0.27025427    -0.00400
C1238       C  0.03437852  0.97151266  0.28659586    -0.12300
C1239       C  0.99598004  0.99413639  0.27970051     0.01800
C1240       C  0.95801641  0.98944947  0.25560009    -0.00500
C1241       C  0.95876765  0.96113752  0.23989321    -0.12200
C1242       C  0.99703841  0.93837306  0.24699038     0.01700
H1243       H  0.06322156  0.97582258  0.30501029     0.14700
H1244       H  0.92969652  0.95682768  0.22160813     0.14700
C1245       C  0.99369291  0.90950441  0.23077555     0.36400
C1246       C  0.99562411  0.02150407  0.29854345     0.36300
N1247       N  0.99074940  0.88629432  0.21789926    -0.44000
N1248       N  0.99631434  0.54367658  0.31293882    -0.44000
C1249       C  0.05119879  0.85727035  0.36877082    -0.00400
C1250       C  0.06817100  0.86155521  0.39976235    -0.12300
C1251       C  0.03229515  0.86132984  0.42404354     0.01800
C1252       C  0.97796189  0.85635052  0.41758644    -0.00500
C1253       C  0.96196483  0.84889044  0.38715345    -0.12200
C1254       C  0.99769764  0.84936851  0.36281868     0.01700
H1255       H  0.10929050  0.86689044  0.40503386     0.14700
H1256       H  0.92054314  0.84424676  0.38199991     0.14700
C1257       C  0.97721502  0.84330267  0.33197056     0.36400
C1258       C  0.05203489  0.86879871  0.45474446     0.36300
N1259       N  0.96067207  0.83849233  0.30726761    -0.44000
N1260       N  0.06802946  0.87484281  0.47928341    -0.44000
C1261       C  0.23739596  0.73200340  0.04056987    -0.00400
C1262       C  0.23959289  0.71732324  0.01177842    -0.12300
C1263       C  0.22045700  0.68744694  0.00806835     0.01800
C1264       C  0.19664525  0.67232499  0.03312804    -0.00500
C1265       C  0.19092443  0.68788279  0.06127864    -0.12200
C1266       C  0.21187645  0.71731731  0.06536383     0.01700
H1267       H  0.25934109  0.72842779  0.99272577     0.14700
H1268       H  0.17315194  0.67626223  0.08071012     0.14700
C1269       C  0.20807265  0.73164842  0.09542811     0.36400
C1270       C  0.22747806  0.67235636  0.97867802     0.36300
N1271       N  0.20541313  0.74324811  0.61978306    -0.44000
N1272       N  0.23352953  0.66031715  0.95513252    -0.44000
C1273       C  0.30213528  0.91992888  0.04774110    -0.00400
C1274       C  0.26799650  0.92777544  0.07182757    -0.12300
C1275       C  0.24853306  0.95751179  0.07498125     0.01800
C1276       C  0.26359554  0.98053219  0.05393186    -0.00500
C1277       C  0.30057445  0.97350833  0.03114888    -0.12200
C1278       C  0.31968486  0.94339791  0.02769012     0.01700
H1279       H  0.25510563  0.91037704  0.08797016     0.14700
H1280       H  0.31231618  0.99116092  0.01499765     0.14700
C1281       C  0.35449744  0.93715489  0.00229936     0.36400
C1282       C  0.21257039  0.96359197  0.09996164     0.36300
N1283       N  0.38351435  0.93234143  0.48224463    -0.44000
N1284       N  0.18361331  0.96840997  0.11986365    -0.44000
C1285       C  0.55314036  0.70357889  0.00187302    -0.00400
C1286       C  0.56760743  0.73473636  0.00233979    -0.12300
C1287       C  0.53155101  0.75793929  0.01088139     0.01800
C1288       C  0.47879129  0.75040328  0.01854176    -0.00500
C1289       C  0.46456604  0.71926999  0.01804960    -0.12200
C1290       C  0.50065187  0.69610594  0.01021306     0.01700
H1291       H  0.60767200  0.74106208  0.99647642     0.14700
H1292       H  0.42466415  0.71273262  0.02405311     0.14700
C1293       C  0.48174873  0.66490872  0.01089998     0.36400
C1294       C  0.55089423  0.78896412  0.01275155     0.36300
N1295       N  0.46645602  0.63995612  0.01166949    -0.44000
N1296       N  0.56698666  0.81371238  0.01434599    -0.44000
C1297       C  0.25729465  0.82718141  0.13919052    -0.00400
C1298       C  0.21322360  0.84727337  0.13878770    -0.12300
C1299       C  0.19278699  0.85904721  0.16648274     0.01800
C1300       C  0.21704636  0.85100119  0.19500648    -0.00500
C1301       C  0.25999605  0.83045072  0.19544974    -0.12200
C1302       C  0.27971432  0.81818573  0.16810500     0.01700
H1303       H  0.19559354  0.85444589  0.11680784     0.14700
H1304       H  0.27778436  0.82350577  0.21749248     0.14700
C1305       C  0.32175291  0.79559796  0.17063889     0.36400
C1306       C  0.14849611  0.88013366  0.16509842     0.36300
N1307       N  0.35526766  0.77741357  0.17269931    -0.44000
N1308       N  0.11304851  0.89710626  0.16400778    -0.44000
C1309       C  0.27638349  0.86129195  0.38314070    -0.00400
C1310       C  0.25717004  0.87779626  0.40849163    -0.12300
C1311       C  0.27043485  0.86958866  0.43896574     0.01800
C1312       C  0.30542041  0.84461867  0.44513174    -0.00500
C1313       C  0.32611334  0.82845542  0.41988897    -0.12200
C1314       C  0.31109217  0.83610037  0.38912923     0.01700
H1315       H  0.22995911  0.89685835  0.40462981     0.14700
H1316       H  0.35261705  0.80917197  0.42421745     0.14700
C1317       C  0.33124867  0.81735935  0.36440579     0.36400
C1318       C  0.24693189  0.88750399  0.46336124     0.36300
N1319       N  0.34709815  0.80212256  0.34465251    -0.44000
N1320       N  0.22754841  0.90202374  0.98266549    -0.44000
C1321       C  0.80454383  0.66688413  0.23720427    -0.00400
C1322       C  0.80189741  0.68029602  0.20774251    -0.12300
C1323       C  0.78731459  0.71104235  0.20409625     0.01800
C1324       C  0.77422648  0.72870061  0.23033407    -0.00500
C1325       C  0.78040261  0.71580285  0.25999176    -0.12200
C1326       C  0.79509885  0.68496515  0.26360486     0.01700
H1327       H  0.80979575  0.66643403  0.18746269     0.14700
H1328       H  0.77010404  0.72915875  0.28021228     0.14700
C1329       C  0.79505088  0.67183394  0.29429765     0.36400
C1330       C  0.78549570  0.72378799  0.17316265     0.36300
N1331       N  0.79417556  0.66170053  0.31905669    -0.44000
N1332       N  0.78411246  0.73406934  0.14842143    -0.44000
C1333       C  0.69978058  0.91656045  0.23662665    -0.00400
C1334       C  0.69999542  0.93507176  0.26324229    -0.12300
C1335       C  0.71310068  0.96625732  0.26145146     0.01800
C1336       C  0.72560396  0.97919714  0.23245234    -0.00500
C1337       C  0.72054888  0.96099656  0.20568656    -0.12200
C1338       C  0.70831710  0.93002534  0.20753065     0.01700
H1339       H  0.69268924  0.92481283  0.28565632     0.14700
H1340       H  0.72824321  0.97068454  0.18306335     0.14700
C1341       C  0.70497239  0.91265148  0.17907929     0.36400
C1342       C  0.71636966  0.48367741  0.28987705     0.36300
N1343       N  0.70223865  0.89898256  0.15615889    -0.44000
N1344       N  0.71851232  0.49735672  0.31281466    -0.44000
C1345       C  0.53939766  0.74441276  0.25891685    -0.00400
C1346       C  0.53912228  0.71595820  0.24352276    -0.12300
C1347       C  0.50156632  0.69340148  0.25001036     0.01800
C1348       C  0.46313726  0.69865681  0.27292719    -0.00500
C1349       C  0.46274354  0.72724966  0.28796723    -0.12200
C1350       C  0.50002372  0.74996893  0.28123453     0.01700
H1351       H  0.56789208  0.71137089  0.22575468     0.14700
H1352       H  0.43373245  0.73176946  0.30561800     0.14700
C1353       C  0.49707018  0.77842850  0.29817984     0.36400
C1354       C  0.50276694  0.66553826  0.23192574     0.36300
N1355       N  0.49432194  0.80118512  0.31184422    -0.44000
N1356       N  0.50383072  0.64332377  0.21728854    -0.44000
C1357       C  0.75236767  0.85583545  0.39301872    -0.00400
C1358       C  0.71170277  0.83395982  0.38999288    -0.12300
C1359       C  0.69499302  0.82313334  0.36061660     0.01800
C1360       C  0.71950064  0.83407586  0.33362451    -0.00500
C1361       C  0.76142618  0.85498150  0.33706091    -0.12200
C1362       C  0.77797202  0.86576349  0.36598449     0.01700
H1363       H  0.69249145  0.82555760  0.41055913     0.14700
H1364       H  0.78128164  0.86367350  0.31681820     0.14700
C1365       C  0.82245319  0.88650807  0.36683323     0.36400
C1366       C  0.65381526  0.80038087  0.35894260     0.36300
N1367       N  0.85810428  0.90306895  0.36719492    -0.44000
N1368       N  0.62099837  0.78199387  0.35763913    -0.44000
C1369       C  0.74620917  0.83241194  0.13740742    -0.00400
C1370       C  0.79668404  0.84617138  0.13760359    -0.12300
C1371       C  0.81757359  0.85903879  0.11058838     0.01800
C1372       C  0.78735589  0.85905125  0.08279211    -0.00500
C1373       C  0.73701550  0.84552833  0.08257394    -0.12200
C1374       C  0.71677844  0.83177839  0.10914035     0.01700
H1375       H  0.81995410  0.84705975  0.15895662     0.14700
H1376       H  0.71430108  0.84431668  0.06100591     0.14700
C1377       C  0.66718725  0.81563914  0.10595302     0.36400
C1378       C  0.86950910  0.87265890  0.11210784     0.36300
N1379       N  0.62780633  0.80237754  0.10326246    -0.44000
N1380       N  0.91111404  0.88362701  0.11336606    -0.44000
C1381       C  0.46929324  0.84681374  0.11712754    -0.00400
C1382       C  0.44550437  0.84232626  0.14591770    -0.12300
C1383       C  0.47570890  0.84276919  0.17342432     0.01800
C1384       C  0.53059033  0.84770470  0.17218313    -0.00500
C1385       C  0.55313556  0.85592027  0.14388298    -0.12200
C1386       C  0.52278478  0.85561351  0.11630790     0.01700
H1387       H  0.40404618  0.83615382  0.14671286     0.14700
H1388       H  0.59553575  0.85964161  0.14288816     0.14700
C1389       C  0.54852687  0.86133293  0.08734930     0.36400
C1390       C  0.45068808  0.83535082  0.20226934     0.36300
N1391       N  0.56951055  0.86603611  0.06424930    -0.44000
N1392       N  0.43062332  0.82953772  0.22540955    -0.44000
O1393       O  0.75509369  0.81611921  0.69021083    -0.85600
O1394       O  0.72294338  0.86566868  0.72385488    -0.82600
C1395       C  0.69380639  0.88314650  0.73946832     0.97900
O1396       O  0.66062592  0.87233503  0.75808227    -0.82700
O1397       O  0.58453967  0.85094341  0.71798681    -0.85300
C1398       C  0.56595616  0.83506969  0.69607549     1.02400
O1399       O  0.57804767  0.80714203  0.69366927    -0.78100
O1400       O  0.67618963  0.81429576  0.66905268    -0.78300
C1401       C  0.72475354  0.82023058  0.66688184     1.02400
O1402       O  0.75453656  0.77968675  0.74617208    -0.85600
O1403       O  0.73441827  0.83203797  0.77984527    -0.82600
C1404       C  0.70217632  0.82619601  0.80106921     0.97900
O1405       O  0.65579389  0.81734382  0.79414212    -0.82700
O1406       O  0.57197011  0.79617253  0.75592460    -0.85300
C1407       C  0.57862024  0.76801505  0.74926714     1.02400
O1408       O  0.61732918  0.75987123  0.73298060    -0.78100
O1409       O  0.71420753  0.76233629  0.70440085    -0.78200
C1410       C  0.74654819  0.75850149  0.72682843     1.02300
Cr1411     Cr  0.73677941  0.82257585  0.73490839     1.93700
Cr1412     Cr  0.62152008  0.83248845  0.75481233     1.93200
Cr1413     Cr  0.64820169  0.78780693  0.70220934     1.39100
O1414       O  0.66874258  0.81396096  0.73113196    -1.23300
O1415       O  0.25337087  0.81588113  0.58509637    -0.85600
O1416       O  0.28534943  0.86758018  0.55608902    -0.82600
C1417       C  0.31484108  0.88694878  0.54348742     0.97900
O1418       O  0.35293700  0.87820229  0.52692806    -0.82700
O1419       O  0.42480650  0.85341107  0.56805172    -0.85300
C1420       C  0.44061206  0.83578183  0.58945239     1.02400
O1421       O  0.43103737  0.80753027  0.58800268    -0.78100
O1422       O  0.33023627  0.81196284  0.60887153    -0.78300
C1423       C  0.28139479  0.81781261  0.60964145     1.02400
O1424       O  0.26164424  0.78304315  0.52699859    -0.85600
O1425       O  0.28294318  0.83812265  0.49759933    -0.82600
C1426       C  0.31859915  0.83548050  0.97760915     0.97900
O1427       O  0.36511949  0.82709387  0.48596323    -0.82700
O1428       O  0.44505386  0.80218914  0.52561822    -0.85300
C1429       C  0.43822772  0.77346754  0.52923482     1.02400
O1430       O  0.39791871  0.76391066  0.54313934    -0.78100
O1431       O  0.29813795  0.76292829  0.56883240    -0.78200
C1432       C  0.26721744  0.76085111  0.54557399     1.02300
Cr1433     Cr  0.27610240  0.82532823  0.54165875     1.93700
Cr1434     Cr  0.39357838  0.83829642  0.52808931     1.93200
Cr1435     Cr  0.36279114  0.78866777  0.57502540     1.39100
O1436       O  0.34422789  0.81719016  0.54768924    -1.23300
O1437       O  0.25734162  0.85218064  0.82897328    -0.85600
O1438       O  0.22417741  0.82170664  0.77681288    -0.82600
C1439       C  0.18562349  0.80579861  0.78568719     0.97900
O1440       O  0.14199660  0.81812754  0.79231985    -0.82700
O1441       O  0.07456842  0.86215203  0.81498632    -0.85300
C1442       C  0.08771752  0.86492014  0.84340991     1.02400
O1443       O  0.13175764  0.87639552  0.85082528    -0.78100
O1444       O  0.23368679  0.89638238  0.84752826    -0.78300
C1445       C  0.25525833  0.87033339  0.85153630     1.02400
O1446       O  0.27288826  0.90800462  0.79205256    -0.85600
O1447       O  0.23056570  0.87695912  0.74198228    -0.82600
C1448       C  0.19847405  0.86205471  0.72524353     0.97900
O1449       O  0.15562124  0.85197899  0.73615988    -0.82700
O1450       O  0.09215285  0.89928446  0.76064146    -0.85300
C1451       C  0.07748095  0.92030251  0.77882947     1.02400
O1452       O  0.09693925  0.92125181  0.80607413    -0.78100
O1453       O  0.20036180  0.93546564  0.79682853    -0.78200
C1454       C  0.24851530  0.93354640  0.79020811     1.02300
Cr1455     Cr  0.24153208  0.86568275  0.78575202     1.93700
Cr1456     Cr  0.12016610  0.85932784  0.77713574     1.93200
Cr1457     Cr  0.16654996  0.90529730  0.82320389     1.39100
O1458       O  0.17599280  0.87670620  0.79506163    -1.23300
O1459       O  0.76221211  0.85159411  0.94800574    -0.85600
O1460       O  0.79073706  0.82558827  0.00333417    -0.82600
C1461       C  0.83000055  0.80918384  0.99598974     0.97900
O1462       O  0.87445150  0.82113309  0.99081826    -0.82700
O1463       O  0.94483727  0.86391198  0.96886892    -0.85300
C1464       C  0.93516315  0.86394823  0.93991661     1.02400
O1465       O  0.89079190  0.87302982  0.92976355    -0.78100
O1466       O  0.78843618  0.89363331  0.92629471    -0.78300
C1467       C  0.76794097  0.86743787  0.92395533     1.02400
O1468       O  0.74151131  0.91020607  0.97934743    -0.85600
O1469       O  0.77967891  0.88300273  0.53380219    -0.82600
C1470       C  0.80952870  0.86867242  0.55268640     0.97900
O1471       O  0.85392529  0.85817939  0.54413240    -0.82700
O1472       O  0.91853915  0.90490210  0.51877865    -0.85300
C1473       C  0.93328087  0.92474005  0.99892136     1.02400
O1474       O  0.91819432  0.92239454  0.97091902    -0.78100
O1475       O  0.81336293  0.93756877  0.97268225    -0.78200
C1476       C  0.76434947  0.93594988  0.97691851     1.02300
Cr1477     Cr  0.77304312  0.86860851  0.99043996     1.93700
Cr1478     Cr  0.89353011  0.86342566  0.00425556     1.93200
Cr1479     Cr  0.85179394  0.90469565  0.95224180     1.39100
O1480       O  0.83931977  0.87914550  0.98278978    -1.23300
O1481       O  0.22215183  0.55524129  0.60390142    -0.85600
O1482       O  0.12267819  0.58013818  0.60233731    -0.82600
C1483       C  0.07859589  0.59011112  0.59271799     0.97900
O1484       O  0.06738612  0.58982735  0.56388218    -0.82700
O1485       O  0.14050619  0.62942439  0.53916109    -0.85300
C1486       C  0.18566228  0.63933933  0.53221540     1.02400
O1487       O  0.22237386  0.62111604  0.52459522    -0.78100
O1488       O  0.25195815  0.59539891  0.57993484    -0.78300
C1489       C  0.24851488  0.57971437  0.60426334     1.02400
O1490       O  0.18835313  0.51161105  0.55885978    -0.85600
O1491       O  0.08630199  0.53090845  0.56274475    -0.82600
C1492       C  0.07148375  0.52769001  0.53478193     0.97900
O1493       O  0.08771968  0.54653073  0.51466623    -0.82700
O1494       O  0.15439267  0.59006468  0.48658219    -0.85300
C1495       C  0.19573066  0.57650567  0.97680717     1.02400
O1496       O  0.22530363  0.56221824  0.49585132    -0.78100
O1497       O  0.26299561  0.53541805  0.55018420    -0.78200
C1498       C  0.23716275  0.51080082  0.55381413     1.02300
Cr1499     Cr  0.15588169  0.54635205  0.57962233     1.93700
Cr1500     Cr  0.11613683  0.58769040  0.52732408     1.93200
Cr1501     Cr  0.23587535  0.57783488  0.53840491     1.39100
O1502       O  0.16942759  0.57054007  0.54815175    -1.23300
O1503       O  0.81261259  0.56508023  0.66918390    -0.85600
O1504       O  0.91393057  0.55157455  0.68831836    -0.82600
C1505       C  0.92842802  0.57901945  0.68813720     0.97900
O1506       O  0.91541365  0.59658328  0.70992526    -0.82700
O1507       O  0.85049943  0.62220941  0.75372089    -0.85300
C1508       C  0.81106402  0.63350826  0.73909966     1.02400
O1509       O  0.77676611  0.61674614  0.72621309    -0.78100
O1510       O  0.73730302  0.56922374  0.69280299    -0.78300
C1511       C  0.76491901  0.57380656  0.66906857     1.02400
O1512       O  0.77569586  0.51445907  0.70421502    -0.85600
O1513       O  0.87749609  0.50704169  0.72974868    -0.82600
C1514       C  0.91935319  0.51416956  0.74472814     0.97900
O1515       O  0.93039349  0.54228567  0.74949879    -0.82700
O1516       O  0.86000314  0.56855360  0.79104265    -0.85300
C1517       C  0.81485512  0.57631560  0.80063930     1.02400
O1518       O  0.77687678  0.58180830  0.78187679    -0.78100
O1519       O  0.74709969  0.53061199  0.74853950    -0.78200
C1520       C  0.75029926  0.50968668  0.72855659     1.02300
Cr1521     Cr  0.84360545  0.53644965  0.70010694     1.93700
Cr1522     Cr  0.88520889  0.58089840  0.74947950     1.93200
Cr1523     Cr  0.76447090  0.57358349  0.73698592     1.39100
O1524       O  0.83121091  0.56342416  0.72956781    -1.23300
O1525       O  0.32271903  0.62415068  0.85848722    -0.85600
O1526       O  0.42306088  0.63510798  0.83827105    -0.82600
C1527       C  0.43970409  0.60800012  0.83578695     0.97900
O1528       O  0.42264369  0.59096435  0.81438890    -0.82700
O1529       O  0.35421324  0.56860209  0.76985513    -0.85300
C1530       C  0.31493100  0.55690748  0.78299839     1.02400
O1531       O  0.28227604  0.57314553  0.79760170    -0.78100
O1532       O  0.24652884  0.62055426  0.83363861    -0.78300
C1533       C  0.27451777  0.61662068  0.85807914     1.02400
O1534       O  0.28500430  0.67628018  0.82378763    -0.85600
O1535       O  0.38450104  0.68165055  0.79794618    -0.82600
C1536       C  0.42523379  0.67443108  0.78283967     0.97900
O1537       O  0.43603790  0.64639927  0.77788265    -0.82700
O1538       O  0.36138384  0.62457067  0.73588746    -0.85300
C1539       C  0.31634217  0.61659186  0.72583290     1.02400
O1540       O  0.27943716  0.61034966  0.74408191    -0.78100
O1541       O  0.25190889  0.66074649  0.77959920    -0.78200
C1542       C  0.25593703  0.68115586  0.80017705     1.02300
Cr1543     Cr  0.35241724  0.65232881  0.82730662     1.93700
Cr1544     Cr  0.38953952  0.60907146  0.77622298     1.93200
Cr1545     Cr  0.27008276  0.61716450  0.78929683     1.39100
O1546       O  0.33733428  0.62616164  0.79726082    -1.23300
O1547       O  0.69829374  0.63113542  0.91645212    -0.85600
O1548       O  0.59762202  0.64250591  0.93526571    -0.82600
C1549       C  0.58326865  0.61492204  0.93537090     0.97900
O1550       O  0.59692287  0.59755237  0.95747180    -0.82700
O1551       O  0.66372847  0.57205484  0.00121228    -0.85300
C1552       C  0.70076699  0.56067170  0.98550295     1.02400
O1553       O  0.73408026  0.57768914  0.97268707    -0.78100
O1554       O  0.77371826  0.62654490  0.94162413    -0.78300
C1555       C  0.74578076  0.62198782  0.91745951     1.02400
O1556       O  0.73566562  0.68188002  0.95404823    -0.81600
O1557       O  0.63387089  0.68733503  0.97782879    -0.82600
C1558       C  0.59244118  0.67963503  0.99196337     0.97900
O1559       O  0.58176181  0.65132253  0.49646288    -0.82700
O1560       O  0.65491079  0.62604426  0.53869713    -0.85300
C1561       C  0.70033173  0.61783792  0.54856221     1.02400
O1562       O  0.73636475  0.61092429  0.52981697    -0.78100
O1563       O  0.76601388  0.66286089  0.99789099    -0.78200
C1564       C  0.76236359  0.68485821  0.97892601     1.02300
Cr1565     Cr  0.66778503  0.65876539  0.94807324     1.93700
Cr1566     Cr  0.62863526  0.61332661  0.99695932     1.93200
Cr1567     Cr  0.74797609  0.62041486  0.98504556     1.39100
O1568       O  0.68135574  0.63113259  0.97727860    -1.23300
C1569       C  0.48226045  0.59836973  0.85721746    -0.00400
C1570       C  0.46864840  0.58572893  0.88591691    -0.12300
C1571       C  0.50311040  0.58826402  0.91173259     0.01800
C1572       C  0.55131144  0.60405455  0.90868795    -0.00500
C1573       C  0.56676867  0.61380427  0.87923208    -0.12200
C1574       C  0.53285138  0.61101993  0.85358486     0.01700
H1575       H  0.42922093  0.57652555  0.88886681     0.14700
H1576       H  0.60428362  0.62547582  0.87662663     0.14700
C1577       C  0.54835270  0.62447596  0.82453686     0.36400
C1578       C  0.48575759  0.57756032  0.94148363     0.36300
N1579       N  0.56070626  0.63540743  0.80134863    -0.44000
N1580       N  0.47176538  0.56894823  0.96531897    -0.44000
C1581       C  0.76821003  0.60594597  0.89034406    -0.00400
C1582       C  0.81902031  0.61332064  0.88000505    -0.12300
C1583       C  0.83786631  0.60128609  0.85202470     0.01800
C1584       C  0.80529309  0.58173802  0.83392627    -0.00500
C1585       C  0.75672077  0.57232615  0.84578362    -0.12200
C1586       C  0.73853229  0.58370047  0.87392720     0.01700
H1587       H  0.84277950  0.62977584  0.89286184     0.14700
H1588       H  0.73186230  0.55687085  0.83236880     0.14700
C1589       C  0.69003695  0.57139320  0.88582760     0.36400
C1590       C  0.88819316  0.61176864  0.84091250     0.36300
N1591       N  0.65184059  0.56073391  0.89541855    -0.44000
N1592       N  0.92840954  0.62022108  0.83186722    -0.44000
C1593       C  0.74303308  0.58957948  0.64093056    -0.00400
C1594       C  0.77828888  0.60689314  0.62334729    -0.12300
C1595       C  0.76338196  0.61879679  0.59439483     0.01800
C1596       C  0.71201172  0.61343762  0.58213869    -0.00500
C1597       C  0.67485587  0.59886418  0.60096157    -0.12200
C1598       C  0.68982522  0.58714135  0.63033270     0.01700
H1599       H  0.81839244  0.61057141  0.63196139     0.14700
H1600       H  0.63508018  0.59490636  0.59197660     0.14700
C1601       C  0.65058116  0.57150929  0.64824213     0.36400
C1602       C  0.80211860  0.63600271  0.57748499     0.36300
N1603       N  0.61885618  0.55923316  0.66265299    -0.44000
N1604       N  0.83321561  0.64982694  0.56405029    -0.44000
C1605       C  0.30810464  0.60922331  0.69295436    -0.00400
C1606       C  0.30985682  0.57812301  0.68502123    -0.12300
C1607       C  0.29321786  0.56821063  0.65573316     0.01800
C1608       C  0.27436396  0.58976730  0.63357731    -0.00500
C1609       C  0.27559464  0.62123647  0.64096803    -0.12200
C1610       C  0.29193448  0.63106441  0.67062969     0.01700
H1611       H  0.32240962  0.56131659  0.70228972     0.14700
H1612       H  0.26105982  0.63799294  0.62419810     0.14700
C1613       C  0.28939654  0.66327590  0.67818253     0.36400
C1614       C  0.29543079  0.53571264  0.64927392     0.36300
N1615       N  0.28743647  0.68909046  0.68431096    -0.44000
N1616       N  0.29720386  0.50967797  0.64415844    -0.44000
C1617       C  0.21281745  0.58145172  0.94408048    -0.00400
C1618       C  0.18019142  0.59916041  0.92397595    -0.12300
C1619       C  0.19853644  0.60996559  0.89545993     0.01800
C1620       C  0.25099240  0.60353625  0.88654858    -0.00500
C1621       C  0.28250468  0.58433334  0.90557743    -0.12200
C1622       C  0.26384469  0.57284019  0.93369373     0.01700
H1623       H  0.14079044  0.60579928  0.93107353     0.14700
H1624       H  0.32223743  0.57832805  0.89847355     0.14700
C1625       C  0.29871193  0.55265296  0.95128809     0.36400
C1626       C  0.16365571  0.62913174  0.87676475     0.36300
N1627       N  0.32745434  0.53707860  0.46554000    -0.44000
N1628       N  0.13564457  0.64443544  0.86174718    -0.44000
C1629       C  0.03701553  0.59626872  0.61551375    -0.00400
C1630       C  0.98643031  0.58517244  0.60836309    -0.12300
C1631       C  0.94966446  0.58056396  0.63150553     0.01800
C1632       C  0.96181444  0.58923638  0.66244679    -0.00500
C1633       C  0.01029613  0.60358372  0.66905959    -0.12200
C1634       C  0.04849957  0.60647122  0.64602198     0.01700
H1635       H  0.97741156  0.57689690  0.58515446     0.14700
H1636       H  0.02009430  0.61011959  0.69271074     0.14700
C1637       C  0.09999368  0.61832703  0.65463796     0.36400
C1638       C  0.90200051  0.56435730  0.62273305     0.36300
N1639       N  0.14136376  0.62763787  0.66160221    -0.44000
N1640       N  0.86508015  0.55081044  0.61448169    -0.44000
C1641       C  0.73443592  0.96491057  0.97666916    -0.00400
C1642       C  0.71142646  0.97549291  0.00396672    -0.12300
C1643       C  0.69657076  0.00643624  0.00686926     0.01800
C1644       C  0.70657190  0.52710522  0.98238037    -0.00500
C1645       C  0.72564915  0.51570829  0.95434352    -0.12200
C1646       C  0.73835324  0.98481324  0.95107546     0.01700
H1647       H  0.71114256  0.96044003  0.52426608     0.14700
H1648       H  0.73150169  0.53115781  0.93502611     0.14700
C1649       C  0.75874897  0.97436136  0.92182729     0.36400
C1650       C  0.67882356  0.51708843  0.53694488     0.36300
N1651       N  0.77485454  0.96598315  0.89836725    -0.44000
N1652       N  0.66345243  0.52550712  0.56056590    -0.44000
C1653       C  0.78801446  0.71461744  0.98549936    -0.00400
C1654       C  0.81387607  0.72992429  0.96148092    -0.12300
C1655       C  0.83132093  0.76020198  0.96520087     0.01800
C1656       C  0.82220848  0.77576421  0.99324001    -0.00500
C1657       C  0.79778598  0.76018646  0.01754521    -0.12200
C1658       C  0.78110218  0.72977945  0.01401719     0.01700
H1659       H  0.81875880  0.71855219  0.93937143     0.14700
H1660       H  0.79158130  0.77205270  0.53939810     0.14700
C1661       C  0.75418452  0.71552290  0.53958084     0.36400
C1662       C  0.85423553  0.77567120  0.93909371     0.36300
N1663       N  0.73201377  0.70413607  0.55974890    -0.44000
N1664       N  0.87238328  0.78819117  0.91819794    -0.44000
C1665       C  0.97038821  0.95047802  0.50824369    -0.00400
C1666       C  0.97446316  0.95972360  0.53935709    -0.12300
C1667       C  0.00572440  0.98494640  0.54844498     0.01800
C1668       C  0.03493215  0.00161899  0.52620286    -0.00500
C1669       C  0.03001291  0.99263215  0.99481960    -0.12200
C1670       C  0.99829747  0.96769877  0.98564335     0.01700
H1671       H  0.95217431  0.94758486  0.55670627     0.14700
H1672       H  0.05150861  0.00510002  0.97735537     0.14700
C1673       C  0.99705926  0.96005870  0.95307329     0.36400
C1674       C  0.00858160  0.49205531  0.58099503     0.36300
N1675       N  0.99618832  0.95403459  0.92696013    -0.44000
N1676       N  0.00951580  0.49821751  0.60707452    -0.44000
C1677       C  0.27526915  0.96224646  0.78200927    -0.00400
C1678       C  0.24653146  0.98313233  0.76332905    -0.12300
C1679       C  0.26091220  0.51381389  0.76208127     0.01800
C1680       C  0.30489428  0.52401609  0.77961201    -0.00500
C1681       C  0.33721238  0.00276058  0.79549282    -0.12200
C1682       C  0.32264481  0.97178339  0.79687532     0.01700
H1683       H  0.21069509  0.97576832  0.75129025     0.14700
H1684       H  0.37176119  0.01062822  0.80843505     0.14700
C1685       C  0.35422916  0.95102333  0.81578431     0.36400
C1686       C  0.22906644  0.53464323  0.74331436     0.36300
N1687       N  0.37967101  0.93440338  0.83091101    -0.44000
N1688       N  0.20357126  0.55120002  0.72814411    -0.44000
C1689       C  0.22812740  0.71126012  0.79704066    -0.00400
C1690       C  0.21390143  0.72243644  0.76739051    -0.12300
C1691       C  0.19635785  0.75285082  0.76330720     0.01800
C1692       C  0.19320581  0.77250781  0.78910335    -0.00500
C1693       C  0.20330838  0.76085825  0.81879990    -0.12200
C1694       C  0.22001247  0.73048548  0.82307036     0.01700
H1695       H  0.21858083  0.70789293  0.74725365     0.14700
H1696       H  0.19995379  0.77590398  0.83869303     0.14700
C1697       C  0.22864125  0.71990674  0.85451907     0.36400
C1698       C  0.18180205  0.76349019  0.73258082     0.36300
N1699       N  0.23536119  0.71143556  0.87972477    -0.44000
N1700       N  0.16936152  0.77191822  0.70804221    -0.44000
C1701       C  0.03644791  0.94380777  0.76938471    -0.00400
C1702       C  0.03479493  0.97180289  0.78561330    -0.12300
C1703       C  0.99663801  0.99452628  0.77861665     0.01800
C1704       C  0.95837447  0.98977722  0.75467734    -0.00500
C1705       C  0.95915611  0.96149853  0.73891176    -0.12200
C1706       C  0.99747631  0.93873728  0.74593694     0.01700
H1707       H  0.06370707  0.97610946  0.80399277     0.14700
H1708       H  0.93012338  0.95723590  0.72059330     0.14700
C1709       C  0.99464651  0.91009887  0.72928311     0.36400
C1710       C  0.99710674  0.02214721  0.79708548     0.36300
N1711       N  0.99219099  0.88711696  0.71596388    -0.44000
N1712       N  0.99612735  0.54381317  0.81259660    -0.44000
C1713       C  0.05005996  0.85767709  0.86843487    -0.00400
C1714       C  0.06701090  0.86184686  0.89944452    -0.12300
C1715       C  0.03110232  0.86164163  0.92370372     0.01800
C1716       C  0.97674569  0.85680397  0.91721044    -0.00500
C1717       C  0.96071966  0.84950701  0.88673823    -0.12200
C1718       C  0.99648653  0.84997844  0.86241988     0.01700
H1719       H  0.10817198  0.86704157  0.90475653     0.14700
H1720       H  0.91927542  0.84496728  0.88155212     0.14700
C1721       C  0.97598806  0.84411648  0.83153188     0.36400
C1722       C  0.05086282  0.86893956  0.95444211     0.36300
N1723       N  0.95944936  0.83947171  0.80679433    -0.44000
N1724       N  0.06684576  0.87483954  0.97901984    -0.44000
C1725       C  0.23768275  0.73211662  0.54086411    -0.00400
C1726       C  0.23991698  0.71746522  0.51206246    -0.12300
C1727       C  0.22088792  0.68757826  0.50833978     0.01800
C1728       C  0.19722537  0.67241208  0.53341428    -0.00500
C1729       C  0.19146546  0.68793344  0.56157993    -0.12200
C1730       C  0.21224994  0.71739784  0.56566549     0.01700
H1731       H  0.25957103  0.72861596  0.49300250     0.14700
H1732       H  0.17373724  0.67628004  0.58100611     0.14700
C1733       C  0.20829371  0.73174207  0.59571691     0.36400
C1734       C  0.22774789  0.67255536  0.47890014     0.36300
N1735       N  0.20534319  0.74314371  0.11950666    -0.44000
N1736       N  0.23363794  0.66058429  0.45530384    -0.44000
C1737       C  0.30229259  0.91997862  0.54767088    -0.00400
C1738       C  0.26776436  0.92780433  0.57156883    -0.12300
C1739       C  0.24820023  0.95751615  0.57461511     0.01800
C1740       C  0.26365638  0.98055937  0.55369398    -0.00500
C1741       C  0.30105579  0.97356997  0.53113679    -0.12200
C1742       C  0.32019296  0.94345875  0.52774455     0.01700
H1743       H  0.25457840  0.91039944  0.58761840     0.14700
H1744       H  0.31310053  0.99124405  0.51509155     0.14700
C1745       C  0.35541190  0.93723003  0.50254335     0.36400
C1746       C  0.21161427  0.96351876  0.59930475     0.36300
N1747       N  0.38227991  0.93226271  0.98185067    -0.44000
N1748       N  0.18209928  0.96827430  0.61893838    -0.44000
C1749       C  0.55217068  0.70349260  0.50161709    -0.00400
C1750       C  0.56743206  0.73447404  0.50322215    -0.12300
C1751       C  0.53158702  0.75771536  0.51187251     0.01800
C1752       C  0.47833647  0.75040086  0.51854852    -0.00500
C1753       C  0.46324773  0.71944780  0.51683485    -0.12200
C1754       C  0.49906920  0.69622580  0.50877296     0.01700
H1755       H  0.60795547  0.74060183  0.49821480     0.14700
H1756       H  0.42285980  0.71312774  0.52197200     0.14700
C1757       C  0.47925637  0.66521988  0.50781195     0.36400
C1758       C  0.55161685  0.78850130  0.51493903     0.36300
N1759       N  0.46320508  0.64041782  0.50722524    -0.44000
N1760       N  0.56828152  0.81304760  0.51746722    -0.44000
C1761       C  0.25727792  0.82731522  0.63927294    -0.00400
C1762       C  0.21282179  0.84711722  0.63883394    -0.12300
C1763       C  0.19219765  0.85880476  0.66650424     0.01800
C1764       C  0.21672998  0.85101192  0.69501580    -0.00500
C1765       C  0.26004908  0.83073458  0.69550245    -0.12200
C1766       C  0.27989626  0.81850148  0.66819224     0.01700
H1767       H  0.19499370  0.85411059  0.61684806     0.14700
H1768       H  0.27799498  0.82395252  0.71755591     0.14700
C1769       C  0.32222710  0.79610256  0.67078184     0.36400
C1770       C  0.14737692  0.87951402  0.66511002     0.36300
N1771       N  0.35596601  0.77806318  0.67290306    -0.44000
N1772       N  0.11148248  0.89616823  0.66401636    -0.44000
C1773       C  0.27579746  0.86138132  0.88307956    -0.00400
C1774       C  0.25713134  0.87806986  0.90845527    -0.12300
C1775       C  0.27048250  0.86983361  0.93891878     0.01800
C1776       C  0.30521994  0.84473884  0.94504367    -0.00500
C1777       C  0.32538081  0.82838913  0.91977587    -0.12200
C1778       C  0.31007395  0.83597671  0.88904432     0.01700
H1779       H  0.23017961  0.89726022  0.90463244     0.14700
H1780       H  0.35155682  0.80895167  0.92407634     0.14700
C1781       C  0.32924635  0.81684097  0.86435018     0.36400
C1782       C  0.24712484  0.88775538  0.96335457     0.36300
N1783       N  0.34421819  0.80126029  0.84462770    -0.44000
N1784       N  0.22731997  0.90179503  0.48264334    -0.44000
C1785       C  0.80400983  0.66683278  0.73709779    -0.00400
C1786       C  0.80138258  0.68021803  0.70762315    -0.12300
C1787       C  0.78677990  0.71095436  0.70394787     0.01800
C1788       C  0.77361030  0.72861231  0.73016797    -0.00500
C1789       C  0.77974613  0.71573758  0.75983976    -0.12200
C1790       C  0.79450769  0.68491770  0.76348321     0.01700
H1791       H  0.80934375  0.66634659  0.68735848     0.14700
H1792       H  0.76941647  0.72910423  0.78004737     0.14700
C1793       C  0.79454928  0.67180724  0.79418932     0.36400
C1794       C  0.78510996  0.72369961  0.67301251     0.36300
N1795       N  0.79378829  0.66167105  0.81895120    -0.44000
N1796       N  0.78387678  0.73397703  0.64826874    -0.44000
C1797       C  0.69997079  0.91651563  0.73647048    -0.00400
C1798       C  0.70020927  0.93503204  0.76308299    -0.12300
C1799       C  0.71330709  0.96622041  0.76128806     0.01800
C1800       C  0.72567984  0.97918197  0.73227643    -0.00500
C1801       C  0.72069869  0.96096247  0.70552199    -0.12200
C1802       C  0.70857960  0.92997636  0.70737553     0.01700
H1803       H  0.69293646  0.92477240  0.78550081     0.14700
H1804       H  0.72836684  0.97064866  0.68289447     0.14700
C1805       C  0.70547358  0.91259220  0.67892505     0.36400
C1806       C  0.71667837  0.48353439  0.78968404     0.36300
N1807       N  0.70298112  0.89893889  0.65598850    -0.44000
N1808       N  0.71913848  0.49714983  0.81265246    -0.44000
C1809       C  0.53884685  0.74452121  0.75854304    -0.00400
C1810       C  0.53865924  0.71601383  0.74323808    -0.12300
C1811       C  0.50122882  0.69341229  0.74983623     0.01800
C1812       C  0.46286745  0.69866549  0.77279229    -0.00500
C1813       C  0.46232046  0.72732655  0.78769787    -0.12200
C1814       C  0.49943399  0.75009994  0.78083247     0.01700
H1815       H  0.56741905  0.71140918  0.72546915     0.14700
H1816       H  0.43330718  0.73186605  0.80534224     0.14700
C1817       C  0.49623058  0.77865664  0.79759138     0.36400
C1818       C  0.50246744  0.66550342  0.73182292     0.36300
N1819       N  0.49327587  0.80150050  0.81109093    -0.44000
N1820       N  0.50354265  0.64325351  0.71724045    -0.44000
C1821       C  0.75151202  0.85570646  0.89288022    -0.00400
C1822       C  0.71078581  0.83388035  0.88978784    -0.12300
C1823       C  0.69421045  0.82306686  0.86038490     0.01800
C1824       C  0.71903592  0.83390416  0.83345083    -0.00500
C1825       C  0.76102325  0.85475238  0.83696274    -0.12200
C1826       C  0.77730697  0.86560437  0.86590065     0.01700
H1827       H  0.69136369  0.82555217  0.91031522     0.14700
H1828       H  0.78106201  0.86339675  0.81676252     0.14700
C1829       C  0.82161203  0.88647134  0.86681116     0.36400
C1830       C  0.65271163  0.80051302  0.85861645     0.36300
N1831       N  0.85708498  0.90315928  0.86720563    -0.44000
N1832       N  0.61959513  0.78231133  0.85721748    -0.44000
C1833       C  0.74641744  0.83239751  0.63734552    -0.00400
C1834       C  0.79727177  0.84568091  0.63758374    -0.12300
C1835       C  0.81842178  0.85852850  0.61064228     0.01800
C1836       C  0.78806486  0.85905642  0.58289885    -0.00500
C1837       C  0.73734371  0.84601458  0.58264144    -0.12200
C1838       C  0.71686104  0.83222959  0.60911455     0.01700
H1839       H  0.82067248  0.84617815  0.65890412     0.14700
H1840       H  0.71451089  0.84516672  0.56109537     0.14700
C1841       C  0.66688635  0.81650218  0.60584295     0.36400
C1842       C  0.87083214  0.87153559  0.61217790     0.36300
N1843       N  0.62721559  0.80354350  0.60307890    -0.44000
N1844       N  0.91283592  0.88198806  0.61344832    -0.44000
C1845       C  0.46912084  0.84719277  0.61716066    -0.00400
C1846       C  0.44535529  0.84260410  0.64593635    -0.12300
C1847       C  0.47555515  0.84306609  0.67343246     0.01800
C1848       C  0.53039297  0.84812308  0.67217518    -0.00500
C1849       C  0.55284382  0.85655040  0.64391717    -0.12200
C1850       C  0.52248500  0.85623625  0.61635284     0.01700
H1851       H  0.40395356  0.83631912  0.64672073     0.14700
H1852       H  0.59520713  0.86041213  0.64292998     0.14700
C1853       C  0.54812087  0.86221613  0.58741730     0.36400
C1854       C  0.45061818  0.83550517  0.70226662     0.36300
N1855       N  0.56903954  0.86715522  0.56434739    -0.44000
N1856       N  0.43061779  0.82957684  0.72539686    -0.44000
loop_ 
_geom_bond_atom_site_label_1 
_geom_bond_atom_site_label_2 
_geom_bond_distance 
_geom_bond_site_symmetry_2 
_ccdc_geom_bond_type 
O1          Cr19   2.013       .  S
O1            C9   1.265       .  A
O2          Cr19   1.965       .  S
O2            C3   1.261       .  A
C3            O4   1.265       .  A
C3          C405   1.470       .  S
O4          Cr20   2.007       .  S
O5          Cr20   1.995       .  S
O5            C6   1.258       .  A
C6            O7   1.258       .  A
C6          C456   1.467       .  S
O7          Cr21   1.984       .  S
O8          Cr21   1.982       .  S
O8            C9   1.260       .  A
C9          C441   1.495       .  S
O10         Cr19   1.978       .  S
O10          C18   1.261       .  A
O11         Cr19   1.986       .  S
O11          C12   1.264       .  A
C12          O13   1.266       .  A
C12         C432   1.493       .  S
O13         Cr20   2.000       .  S
O14         Cr20   2.025       .  S
O14          C15   1.272       .  A
C15          O16   1.264       .  A
C15         C417   1.499       .  S
O16         Cr21   1.976       .  S
O17         Cr21   1.996       .  S
O17          C18   1.264       .  A
C18         C396   1.473       .  S
Cr19         O22   1.765       .  S
Cr20         O22   1.776       .  S
Cr21         O22   1.765       .  S
O23         Cr41   2.014       .  S
O23          C31   1.265       .  A
O24         Cr41   1.960       .  S
O24          C25   1.260       .  A
C25          O26   1.266       .  A
C25         C345   1.484       .  S
O26         Cr42   2.013       .  S
O27         Cr42   1.998       .  S
O27          C28   1.258       .  A
C28          O29   1.258       .  A
C28         C453   1.474       .  S
O29         Cr43   1.985       .  S
O30         Cr43   1.970       .  S
O30          C31   1.258       .  A
C31         C369   1.486       .  S
O32         Cr41   1.985       .  S
O32          C40   1.261       .  A
O33         Cr41   1.992   1_556  S
O33         C498   1.264       .  A
C34         O497   1.264       .  A
C34         O499   1.268       .  A
C34         C384   1.493       .  S
O35         Cr42   2.005   1_556  S
O35         C498   1.268       .  A
O36         Cr42   2.039       .  S
O36          C37   1.275       .  A
C37          O38   1.265       .  A
C37         C360   1.503       .  S
O38         Cr43   1.971       .  S
O39         Cr43   2.002       .  S
O39          C40   1.263       .  A
C40         C333   1.476       .  S
Cr41         O44   1.768       .  S
Cr42         O44   1.781       .  S
Cr43         O44   1.768       .  S
O45         Cr63   1.988       .  S
O45          C53   1.257       .  A
O46         Cr63   2.005       .  S
O46          C47   1.264       .  A
C47          O48   1.260       .  A
C47         C300   1.468       .  S
O48         Cr64   1.981       .  S
O49         Cr64   2.021       .  S
O49          C50   1.271       .  A
C50          O51   1.258       .  A
C50         C321   1.488       .  S
O51         Cr65   1.958       .  S
O52         Cr65   2.010       .  S
O52          C53   1.266       .  A
C53         C381   1.497       .  S
O54         Cr63   2.029       .  S
O54          C62   1.270       .  A
O55         Cr63   1.966       .  S
O55          C56   1.259       .  A
C56          O57   1.270       .  A
C56         C372   1.473       .  S
O57         Cr64   2.024       .  S
O58         Cr64   2.000       .  S
O58          C59   1.266       .  A
C59          O60   1.266       .  A
C59         C309   1.502       .  S
O60         Cr65   2.012       .  S
O61         Cr65   1.950       .  S
O61          C62   1.257       .  A
C62         C285   1.471       .  S
Cr63         O66   1.774       .  S
Cr64         O66   1.770       .  S
Cr65         O66   1.760       .  S
O67         Cr85   1.992       .  S
O67          C75   1.257       .  A
O68         Cr85   2.001       .  S
O68          C69   1.264       .  A
C69          O70   1.264       .  A
C69         C264   1.476       .  S
O70         Cr86   1.993       .  S
O71         Cr86   2.022       .  S
O71          C72   1.269       .  A
C72          O73   1.256       .  A
C72         C324   1.482       .  S
O73         Cr87   1.960       .  S
O74         Cr87   1.996       .  S
O74          C75   1.260       .  A
C75         C429   1.489       .  S
O76         Cr85   2.028       .  S
O76          C84   1.270       .  A
O77        Cr549   1.970   1_554  S
O77          C78   1.261       .  A
C78          O79   1.270       .  A
C78         C444   1.483       .  S
O79        Cr550   2.023       .  S
O80        Cr550   2.015       .  S
O80         C545   1.271   1_554  A
C81          O82   1.264       .  A
C81         O544   1.271       .  A
C81         C737   1.507       .  S
O82         Cr87   2.004       .  S
O83         Cr87   1.948       .  S
O83          C84   1.257       .  A
C84         C249   1.467       .  S
Cr85        O541   1.969       .  S
Cr85         O88   1.774       .  S
Cr86        O543   2.023       .  S
Cr86        O544   2.014       .  S
Cr86         O88   1.771       .  S
Cr87         O88   1.759       .  S
O89        Cr107   1.997       .  S
O89          C97   1.261       .  A
O90        Cr107   1.964       .  S
O90          C91   1.255       .  A
C91          O92   1.271       .  A
C91         C237   1.476       .  S
O92        Cr108   2.023       .  S
O93        Cr108   1.991       .  S
O93          C94   1.264       .  A
C94          O95   1.265       .  A
C94         C336   1.475       .  S
O95        Cr109   2.003       .  S
O96        Cr109   1.986       .  S
O96          C97   1.257       .  A
C97         C216   1.481       .  S
O98        Cr107   1.946       .  S
O98         C106   1.256       .  A
O99        Cr107   2.010       .  S
O99         C100   1.265       .  A
C100        O101   1.270       .  A
C100       C1204   1.507       .  S
O101       Cr108   2.011       .  S
O102       Cr108   2.025   1_556  S
O102        C567   1.271       .  A
C103        O566   1.272       .  A
C103        O568   1.260       .  A
C103        C225   1.501       .  S
O104       Cr109   1.975   1_556  S
O104        C567   1.261       .  A
O105       Cr109   2.028       .  S
O105        C106   1.271       .  A
C106       C1276   1.473   1_545  S
Cr107       O110   1.759       .  S
Cr108       O110   1.765       .  S
Cr109       O110   1.769       .  S
O111       Cr129   1.972       .  S
O111        C119   1.260       .  A
O112       Cr129   1.974       .  S
O112        C113   1.254       .  A
C113        O114   1.261       .  A
C113        C240   1.477       .  S
O114       Cr130   2.006       .  S
O115       Cr130   2.008       .  S
O115        C116   1.265       .  A
C116        O117   1.259       .  A
C116        C393   1.465       .  S
O117       Cr131   1.966       .  S
O118       Cr131   2.025       .  S
O118        C119   1.267       .  A
C119        C201   1.490       .  S
O120       Cr129   1.981       .  S
O120        C128   1.259       .  A
O121       Cr129   1.987       .  S
O121        C122   1.268       .  A
C122        O123   1.275       .  A
C122       C1240   1.501   1_545  S
O123       Cr130   2.028       .  S
O124       Cr130   1.991       .  S
O124        C125   1.265       .  A
C125        O126   1.264       .  A
C125        C192   1.482       .  S
O126       Cr131   1.991       .  S
O127       Cr131   1.992       .  S
O127        C128   1.260       .  A
C128       C1336   1.481   1_545  S
Cr129       O132   1.765       .  S
Cr130       O132   1.774       .  S
Cr131       O132   1.774       .  S
O133       Cr151   1.983       .  S
O133        C141   1.262       .  A
O134       Cr151   1.979       .  S
O134        C135   1.257       .  A
C135        O136   1.257       .  A
C135        C177   1.463       .  S
O136       Cr152   1.992       .  S
O137       Cr152   1.999       .  S
O137        C138   1.262       .  A
C138        O139   1.262       .  A
C138        C288   1.464       .  S
O139       Cr153   1.973       .  S
O140       Cr153   2.020       .  S
O140        C141   1.269       .  A
C141        C228   1.490       .  S
O142       Cr151   1.993       .  S
O142        C150   1.261       .  A
O143       Cr151   1.987       .  S
O143        C144   1.266       .  A
C144        O145   1.269       .  A
C144        C420   1.495       .  S
O145       Cr152   2.013       .  S
O146       Cr152   1.984       .  S
O146        C147   1.260       .  A
C147        O148   1.263       .  A
C147        C213   1.467       .  S
O148       Cr153   1.993       .  S
O149       Cr153   1.992       .  S
O149        C150   1.261       .  A
C150        C297   1.488       .  S
Cr151       O154   1.766       .  S
Cr152       O154   1.775       .  S
Cr153       O154   1.772       .  S
O155       Cr173   1.985       .  S
O155        C163   1.261       .  A
O156       Cr173   1.981       .  S
O156        C157   1.258       .  A
C157        O158   1.259       .  A
C157        C180   1.474       .  S
O158       Cr174   1.994       .  S
O159       Cr174   2.008       .  S
O159        C160   1.265       .  A
C160        O161   1.261       .  A
C160        C252   1.476       .  S
O161       Cr175   1.969       .  S
O162       Cr175   2.015       .  S
O162        C163   1.265       .  A
C163        C189   1.485       .  S
O164       Cr173   2.007       .  S
O164        C172   1.264       .  A
O165       Cr173   1.991       .  S
O165        C166   1.268       .  A
C166        O631   1.272       .  A
C166        C821   1.502       .  S
O167       Cr638   2.016       .  S
O167        C630   1.272       .  A
O168       Cr638   1.993   1_554  S
O168        C169   1.264       .  A
C169        O170   1.264       .  A
C169        C204   1.485       .  S
O170       Cr639   1.993   1_554  S
O171       Cr175   1.986       .  S
O171        C172   1.261       .  A
C172        C261   1.480       .  S
Cr173       O176   1.769       .  S
Cr174       O631   2.018       .  S
Cr174       O632   1.992       .  S
Cr174       O176   1.776       .  S
Cr175       O634   1.994       .  S
Cr175       O176   1.768       .  S
C177        C178   1.405       .  A
C177        C182   1.406       .  A
C178        C179   1.405       .  A
C178        H183   1.085       .  S
C179        C180   1.410       .  A
C179        C186   1.443       .  S
C180        C181   1.404       .  A
C181        C182   1.392       .  A
C181        H184   1.086       .  S
C182        C185   1.446       .  S
C185        N187   1.157       .  T
C186        N188   1.157       .  T
C189        C190   1.406       .  A
C189        C194   1.413       .  A
C190        C191   1.408       .  A
C190        H195   1.085       .  S
C191        C192   1.414       .  A
C191        C198   1.444       .  S
C192        C193   1.402       .  A
C193        C194   1.398       .  A
C193        H196   1.084       .  S
C194        C197   1.443       .  S
C197        N199   1.157       .  T
C198        N200   1.157       .  T
C201        C202   1.405       .  A
C201        C206   1.415       .  A
C202        C203   1.396       .  A
C202        H207   1.085       .  S
C203        C204   1.412       .  A
C203        C210   1.445       .  S
C204        C205   1.407       .  A
C205        C206   1.410       .  A
C205        H208   1.084       .  S
C206        C209   1.443       .  S
C209        N211   1.157       .  T
C210        N212   1.157       .  T
C213        C214   1.400       .  A
C213        C218   1.407       .  A
C214        C215   1.394       .  A
C214        H219   1.086       .  S
C215        C216   1.413       .  A
C215        C222   1.445       .  S
C216        C217   1.409       .  A
C217        C218   1.406       .  A
C217        H220   1.085       .  S
C218        C221   1.443       .  S
C221        N223   1.157       .  T
C222        N224   1.157       .  T
C225        C226   1.410       .  A
C225        C230   1.421       .  A
C226        C227   1.406       .  A
C226        H231   1.084       .  S
C227        C228   1.413       .  A
C227        C234   1.444       .  S
C228        C229   1.404       .  A
C229        C230   1.403       .  A
C229        H232   1.085       .  S
C230        C233   1.445       .  S
C233        N699   1.157       .  T
C234        N236   1.157       .  T
N235        C697   1.157       .  T
C237        C238   1.397   1_455  A
C237        C242   1.415       .  A
C238        C239   1.393       .  A
C238        H243   1.086       .  S
C239        C240   1.417       .  A
C239        C246   1.444       .  S
C240        C241   1.403   1_655  A
C241        C242   1.405       .  A
C241        H244   1.085       .  S
C242        C245   1.444       .  S
C245        N247   1.157       .  T
C246        N248   1.157       .  T
C249        C250   1.402       .  A
C249        C254   1.409       .  A
C250        C251   1.405       .  A
C250        H719   1.085       .  S
C251       C1180   1.415       .  A
C251       C1650   1.444       .  S
C252        C253   1.402       .  A
C252       C1179   1.415       .  A
C253       C1182   1.393   1_545  A
C253        H256   1.084       .  S
C254       C1181   1.393       .  A
C254        C257   1.446       .  S
H255        C714   1.085       .  S
C257        N259   1.157       .  T
C258       C1643   1.444       .  S
C258        N260   1.157       .  T
C261        C262   1.406       .  A
C261        C266   1.412       .  A
C262        C263   1.403       .  A
C262        H267   1.085       .  S
C263        C264   1.410       .  A
C263        C270   1.445       .  S
C264        C265   1.404       .  A
C265        C266   1.402       .  A
C265        H732   1.085       .  S
C266        C733   1.444       .  S
H268        C729   1.085       .  S
C269        C730   1.445       .  S
C269        N271   1.157       .  T
C270        N272   1.157       .  T
C273        C545   1.508   1_554  S
C273        C274   1.405       .  A
C273        C742   1.425   1_554  A
C274        C275   1.410   1_655  A
C274        H279   1.085       .  S
C275        C276   1.424       .  A
C275       C1210   1.445       .  S
C276       C1028   1.507       .  S
C276        C741   1.404   1_554  A
C277        C278   1.406   1_455  A
C277        C740   1.403       .  A
C277        H280   1.085       .  S
C278        C737   1.425       .  A
C278        C281   1.445       .  S
C281        N283   1.158       .  T
C282       C1203   1.445       .  S
C282        N284   1.158       .  T
C285        C286   1.404       .  A
C285        C290   1.411       .  A
C286       C1215   1.393       .  A
C286        H291   1.085       .  S
C287        C288   1.406       .  A
C287       C1214   1.393   1_545  A
C287        C294   1.445       .  S
C288       C1217   1.403       .  A
C289        C290   1.403       .  A
C289       C1216   1.403       .  A
C289        H292   1.084       .  S
C290        C293   1.443       .  S
C293        N295   1.157       .  T
C294        N296   1.157       .  T
C297        C298   1.408       .  A
C297        C302   1.420       .  A
C298        C299   1.404       .  A
C298        H303   1.085       .  S
C299        C300   1.409       .  A
C299        C306   1.444       .  S
C300        C301   1.396       .  A
C301        C302   1.397       .  A
C301        H304   1.086       .  S
C302        C305   1.445       .  S
C305        N307   1.157       .  T
C306        N308   1.157       .  T
C309        C310   1.409       .  A
C309        C314   1.416   1_455  A
C310        C311   1.405   1_455  A
C310        H315   1.085       .  S
C311        C312   1.417       .  A
C311        C318   1.445       .  S
C312       C1050   1.502       .  S
C312        C313   1.409       .  A
C313        C314   1.410       .  A
C313        H316   1.085       .  S
C314        C317   1.443       .  S
C317        N319   1.157       .  T
C318       N1248   1.158       .  T
N320       C1246   1.158       .  T
C321        C322   1.410       .  A
C321        C326   1.415   1_455  A
C322        C323   1.399       .  A
C322        H327   1.085       .  S
C323        C324   1.412   1_455  A
C323        C330   1.445       .  S
C324        C325   1.406       .  A
C325        C326   1.398       .  A
C325        H328   1.085       .  S
C326        C329   1.444       .  S
C329        N331   1.157       .  T
C330        N332   1.157       .  T
C333        C334   1.401       .  A
C333        C338   1.415       .  A
C334        C335   1.401       .  A
C334        H339   1.085   1_554  S
C335        C336   1.413       .  A
C335        C342   1.443   1_554  S
C336        C337   1.402       .  A
C337        C338   1.402       .  A
C337        H340   1.085       .  S
C338        C341   1.446       .  S
C341        N807   1.158       .  T
C342        N344   1.157       .  T
N343        C805   1.158       .  T
C345        C346   1.405       .  A
C345        C350   1.418       .  A
C346        C347   1.391       .  A
C346        H351   1.085       .  S
C347        C348   1.412       .  A
C347        C354   1.447       .  S
C348       C1034   1.473       .  S
C348        C349   1.402       .  A
C349        C350   1.404       .  A
C349        H352   1.084       .  S
C350        C353   1.443       .  S
C353        N819   1.157   1_554  T
C354        N356   1.157       .  T
N355        C817   1.157       .  T
C357        C630   1.503   1_554  S
C357        C358   1.409       .  A
C357        C362   1.420       .  A
C358        C359   1.410       .  A
C358        H363   1.085   1_554  S
C359        C360   1.419       .  A
C359        C366   1.443       .  S
C360        C361   1.406       .  A
C361        C362   1.401       .  A
C361        H364   1.085       .  S
C362        C365   1.445       .  S
C365        N367   1.157       .  T
C366        N368   1.157       .  T
C369        C370   1.411       .  A
C369        C374   1.414       .  A
C370        C371   1.407       .  A
C370        H375   1.085       .  S
C371        C372   1.407       .  A
C371        C378   1.443       .  S
C372        C373   1.401       .  A
C373        C374   1.396       .  A
C373        H376   1.086       .  S
C374        C377   1.445       .  S
C377        N379   1.157       .  T
C378        N380   1.157       .  T
C381        C382   1.403       .  A
C381        C386   1.420       .  A
C382        C383   1.397       .  A
C382        H387   1.085       .  S
C383        C384   1.419       .  A
C383        C390   1.446       .  S
C384        C385   1.406       .  A
C385        C386   1.412       .  A
C385        H388   1.084       .  S
C386        C389   1.443       .  S
C389        N391   1.157       .  T
C390        N856   1.157       .  T
N392        C854   1.157       .  T
C393        C394   1.399       .  A
C393        C398   1.410       .  A
C394        C395   1.396       .  A
C394        H399   1.085       .  S
C395        C396   1.414       .  A
C395        C402   1.445       .  S
C396        C397   1.403       .  A
C397        C398   1.400       .  A
C397        H400   1.085       .  S
C398        C401   1.442       .  S
C401        N403   1.156       .  T
C402        N404   1.157       .  T
C405        C406   1.405       .  A
C405        C410   1.407       .  A
C406        C407   1.404       .  A
C406        H411   1.085       .  S
C407        C408   1.415       .  A
C407       C1342   1.443       .  S
C408       C1056   1.482       .  S
C408        C409   1.407       .  A
C409        C410   1.390       .  A
C409        H412   1.085       .  S
C410        C413   1.445       .  S
C413        N415   1.157       .  T
C414       C1335   1.443       .  S
C414        N416   1.157       .  T
C417        C418   1.408       .  A
C417        C422   1.418       .  A
C418        C419   1.402       .  A
C418        H423   1.085       .  S
C419        C420   1.417       .  A
C419        C426   1.445       .  S
C420        C421   1.407       .  A
C421        C422   1.405       .  A
C421        H424   1.085       .  S
C422        C425   1.443       .  S
C425        N427   1.157       .  T
C426        N428   1.158       .  T
C429        C430   1.410       .  A
C429        C434   1.414       .  A
C430        C431   1.411       .  A
C430        H435   1.084       .  S
C431        C432   1.414       .  A
C431        C438   1.443       .  S
C432        C433   1.407       .  A
C433        C434   1.392       .  A
C433        H436   1.085       .  S
C434        C437   1.447       .  S
C437        N439   1.158       .  T
C438        N440   1.157       .  T
C441        C442   1.412       .  A
C441        C446   1.416       .  A
C442        C443   1.407       .  A
C442        H447   1.084       .  S
C443        C444   1.409       .  A
C443        C450   1.443       .  S
C444        C445   1.404       .  A
C445        C446   1.400       .  A
C445        H448   1.085       .  S
C446        C449   1.445       .  S
C449        N451   1.157       .  T
C450        N452   1.157       .  T
C453        C454   1.405       .  A
C453        C458   1.408       .  A
C454        C455   1.399       .  A
C454        H459   1.084       .  S
C455        C456   1.406       .  A
C455        C462   1.445       .  S
C456        C457   1.405       .  A
C457        C458   1.403       .  A
C457        H460   1.085       .  S
C458        C461   1.442       .  S
C461        N463   1.157       .  T
C462        N464   1.157       .  T
O465       Cr483   2.013       .  S
O465        C473   1.265       .  A
O466       Cr483   1.965       .  S
O466        C467   1.261       .  A
C467        O468   1.265       .  A
C467        C869   1.470       .  S
O468       Cr484   2.007       .  S
O469       Cr484   1.994       .  S
O469        C470   1.258       .  A
C470        O471   1.258       .  A
C470        C920   1.466       .  S
O471       Cr485   1.983       .  S
O472       Cr485   1.982       .  S
O472        C473   1.260       .  A
C473        C905   1.495       .  S
O474       Cr483   1.978       .  S
O474        C482   1.261       .  A
O475       Cr483   1.986       .  S
O475        C476   1.264       .  A
C476        O477   1.266       .  A
C476        C896   1.493       .  S
O477       Cr484   2.000       .  S
O478       Cr484   2.025       .  S
O478        C479   1.272       .  A
C479        O480   1.264       .  A
C479        C881   1.499       .  S
O480       Cr485   1.976       .  S
O481       Cr485   1.996       .  S
O481        C482   1.264       .  A
C482        C860   1.473       .  S
Cr483       O486   1.765       .  S
Cr484       O486   1.777       .  S
Cr485       O486   1.765       .  S
O487       Cr505   2.014       .  S
O487        C495   1.265       .  A
O488       Cr505   1.960       .  S
O488        C489   1.260       .  A
C489        O490   1.267       .  A
C489        C809   1.485       .  S
O490       Cr506   2.014       .  S
O491       Cr506   1.997       .  S
O491        C492   1.258       .  A
C492        O493   1.258       .  A
C492        C917   1.473       .  S
O493       Cr507   1.985       .  S
O494       Cr507   1.970       .  S
O494        C495   1.258       .  A
C495        C833   1.486       .  S
O496       Cr505   1.984       .  S
O496        C504   1.261       .  A
O497       Cr505   1.992       .  S
C498        C848   1.493       .  S
O499       Cr506   2.004       .  S
O500       Cr506   2.039       .  S
O500        C501   1.275       .  A
C501        O502   1.264       .  A
C501        C824   1.502       .  S
O502       Cr507   1.971       .  S
O503       Cr507   2.001       .  S
O503        C504   1.263       .  A
C504        C797   1.475       .  S
Cr505       O508   1.768       .  S
Cr506       O508   1.780       .  S
Cr507       O508   1.768       .  S
O509       Cr527   1.988       .  S
O509        C517   1.258       .  A
O510       Cr527   2.006       .  S
O510        C511   1.264       .  A
C511        O512   1.260       .  A
C511        C764   1.469       .  S
O512       Cr528   1.982       .  S
O513       Cr528   2.020       .  S
O513        C514   1.271       .  A
C514        O515   1.258       .  A
C514        C785   1.488       .  S
O515       Cr529   1.958       .  S
O516       Cr529   2.011       .  S
O516        C517   1.266       .  A
C517        C845   1.497       .  S
O518       Cr527   2.029       .  S
O518        C526   1.270       .  A
O519       Cr527   1.965       .  S
O519        C520   1.259       .  A
C520        O521   1.269       .  A
C520        C836   1.473       .  S
O521       Cr528   2.023       .  S
O522       Cr528   2.000       .  S
O522        C523   1.266       .  A
C523        O524   1.266       .  A
C523        C773   1.502       .  S
O524       Cr529   2.012       .  S
O525       Cr529   1.951       .  S
O525        C526   1.257       .  A
C526        C749   1.472       .  S
Cr527       O530   1.773       .  S
Cr528       O530   1.770       .  S
Cr529       O530   1.760       .  S
O531       Cr549   1.992       .  S
O531        C539   1.257       .  A
O532       Cr549   2.001   1_554  S
O532        C533   1.264   1_554  A
C533        O534   1.264       .  A
C533        C728   1.477       .  S
O534       Cr550   1.993   1_556  S
O535       Cr550   2.022   1_556  S
O535        C536   1.269       .  A
C536        O537   1.256       .  A
C536        C788   1.482       .  S
O537       Cr551   1.959       .  S
O538       Cr551   1.997       .  S
O538        C539   1.260       .  A
C539        C893   1.489       .  S
O540       Cr549   2.029       .  S
O540        C548   1.271       .  A
O541        C542   1.261       .  A
C542        O543   1.270       .  A
C542        C908   1.483       .  S
C545        O546   1.264       .  A
O546       Cr551   2.005       .  S
O547       Cr551   1.947       .  S
O547        C548   1.257       .  A
C548        C713   1.467       .  S
Cr549       O552   1.775       .  S
Cr550       O552   1.771   1_554  S
Cr551       O552   1.759       .  S
O553       Cr571   1.998       .  S
O553        C561   1.261       .  A
O554       Cr571   1.962       .  S
O554        C555   1.255       .  A
C555        O556   1.271       .  A
C555        C701   1.477       .  S
O556       Cr572   2.022       .  S
O557       Cr572   1.989       .  S
O557        C558   1.263       .  A
C558        O559   1.265       .  A
C558        C800   1.474       .  S
O559       Cr573   2.003       .  S
O560       Cr573   1.986       .  S
O560        C561   1.257       .  A
C561        C680   1.480       .  S
O562       Cr571   1.945       .  S
O562        C570   1.256       .  A
O563       Cr571   2.010       .  S
O563        C564   1.265       .  A
C564        O565   1.270       .  A
C564       C1668   1.505       .  S
O565       Cr572   2.009       .  S
O566       Cr572   2.026       .  S
C567        C689   1.501       .  S
O568       Cr573   1.974       .  S
O569       Cr573   2.028       .  S
O569        C570   1.271       .  A
C570       C1740   1.473   1_545  S
Cr571       O574   1.759       .  S
Cr572       O574   1.764       .  S
Cr573       O574   1.768       .  S
O575       Cr593   1.973       .  S
O575        C583   1.260       .  A
O576       Cr593   1.974       .  S
O576        C577   1.254       .  A
C577        O578   1.261       .  A
C577        C704   1.476       .  S
O578       Cr594   2.005       .  S
O579       Cr594   2.007       .  S
O579        C580   1.265       .  A
C580        O581   1.259       .  A
C580        C857   1.465       .  S
O581       Cr595   1.966       .  S
O582       Cr595   2.023       .  S
O582        C583   1.267       .  A
C583        C665   1.489       .  S
O584       Cr593   1.981       .  S
O584        C592   1.260       .  A
O585       Cr593   1.988       .  S
O585        C586   1.269       .  A
C586        O587   1.275       .  A
C586       C1704   1.501   1_545  S
O587       Cr594   2.026       .  S
O588       Cr594   1.990       .  S
O588        C589   1.265       .  A
C589        O590   1.264       .  A
C589        C656   1.481       .  S
O590       Cr595   1.990       .  S
O591       Cr595   1.992       .  S
O591        C592   1.260       .  A
C592       C1800   1.482   1_545  S
Cr593       O596   1.764       .  S
Cr594       O596   1.774       .  S
Cr595       O596   1.774       .  S
O597       Cr615   1.983       .  S
O597        C605   1.262       .  A
O598       Cr615   1.978       .  S
O598        C599   1.257       .  A
C599        O600   1.257       .  A
C599        C641   1.462       .  S
O600       Cr616   1.992       .  S
O601       Cr616   1.999       .  S
O601        C602   1.262       .  A
C602        O603   1.262       .  A
C602        C752   1.465       .  S
O603       Cr617   1.973       .  S
O604       Cr617   2.021       .  S
O604        C605   1.269       .  A
C605        C692   1.490       .  S
O606       Cr615   1.993       .  S
O606        C614   1.261       .  A
O607       Cr615   1.987       .  S
O607        C608   1.267       .  A
C608        O609   1.270       .  A
C608        C884   1.495       .  S
O609       Cr616   2.014       .  S
O610       Cr616   1.983       .  S
O610        C611   1.260       .  A
C611        O612   1.263       .  A
C611        C677   1.467       .  S
O612       Cr617   1.994       .  S
O613       Cr617   1.993       .  S
O613        C614   1.261       .  A
C614        C761   1.489       .  S
Cr615       O618   1.766       .  S
Cr616       O618   1.776       .  S
Cr617       O618   1.772       .  S
O619       Cr637   1.985       .  S
O619        C627   1.261       .  A
O620       Cr637   1.981       .  S
O620        C621   1.258       .  A
C621        O622   1.258       .  A
C621        C644   1.474       .  S
O622       Cr638   1.994       .  S
O623       Cr638   2.006   1_554  S
O623        C624   1.265   1_554  A
C624        O625   1.261       .  A
C624        C716   1.476       .  S
O625       Cr639   1.970       .  S
O626       Cr639   2.013       .  S
O626        C627   1.264       .  A
C627        C653   1.484       .  S
O628       Cr637   2.007       .  S
O628        C636   1.264       .  A
O629       Cr637   1.991       .  S
O629        C630   1.268       .  A
O632        C633   1.264       .  A
C633        O634   1.265       .  A
C633        C668   1.485       .  S
O635       Cr639   1.986       .  S
O635        C636   1.262       .  A
C636        C725   1.479       .  S
Cr637       O640   1.769       .  S
Cr638       O640   1.776       .  S
Cr639       O640   1.768       .  S
C641        C642   1.405       .  A
C641        C646   1.406       .  A
C642        C643   1.405       .  A
C642        H647   1.085       .  S
C643        C644   1.410       .  A
C643        C650   1.443       .  S
C644        C645   1.404       .  A
C645        C646   1.392       .  A
C645        H648   1.086       .  S
C646        C649   1.446       .  S
C649        N651   1.157       .  T
C650        N652   1.157       .  T
C653        C654   1.406       .  A
C653        C658   1.412       .  A
C654        C655   1.408       .  A
C654        H659   1.085       .  S
C655        C656   1.414       .  A
C655        C662   1.444       .  S
C656        C657   1.402       .  A
C657        C658   1.397       .  A
C657        H660   1.084       .  S
C658        C661   1.443       .  S
C661        N663   1.157       .  T
C662        N664   1.157       .  T
C665        C666   1.404       .  A
C665        C670   1.415       .  A
C666        C667   1.396       .  A
C666        H671   1.085       .  S
C667        C668   1.412       .  A
C667        C674   1.445       .  S
C668        C669   1.407       .  A
C669        C670   1.410       .  A
C669        H672   1.084       .  S
C670        C673   1.443       .  S
C673        N675   1.157       .  T
C674        N676   1.157       .  T
C677        C678   1.400       .  A
C677        C682   1.406       .  A
C678        C679   1.395       .  A
C678        H683   1.086       .  S
C679        C680   1.413       .  A
C679        C686   1.445       .  S
C680        C681   1.409       .  A
C681        C682   1.406       .  A
C681        H684   1.085       .  S
C682        C685   1.443       .  S
C685        N687   1.157       .  T
C686        N688   1.157       .  T
C689        C690   1.410       .  A
C689        C694   1.421       .  A
C690        C691   1.406       .  A
C690        H695   1.084       .  S
C691        C692   1.413       .  A
C691        C698   1.444       .  S
C692        C693   1.404       .  A
C693        C694   1.404       .  A
C693        H696   1.085       .  S
C694        C697   1.445       .  S
C698        N700   1.157       .  T
C701        C702   1.398   1_455  A
C701        C706   1.416       .  A
C702        C703   1.392       .  A
C702        H707   1.086       .  S
C703        C704   1.417       .  A
C703        C710   1.444       .  S
C704        C705   1.403   1_655  A
C705        C706   1.405       .  A
C705        H708   1.085       .  S
C706        C709   1.444       .  S
C709        N711   1.157       .  T
C710        N712   1.157       .  T
C713        C714   1.401   1_556  A
C713        C718   1.409       .  A
C714        C715   1.404       .  A
C715       C1644   1.415   1_554  A
C715       C1186   1.444       .  S
C716       C1643   1.415   1_556  A
C716        C717   1.402       .  A
C717       C1646   1.393   1_545  A
C717        H720   1.084       .  S
C718       C1645   1.393       .  A
C718        C721   1.446       .  S
C721        N723   1.157       .  T
C722       C1179   1.444       .  S
C722        N724   1.157       .  T
C725        C726   1.406       .  A
C725        C730   1.411   1_556  A
C726        C727   1.403       .  A
C726        H731   1.085       .  S
C727        C728   1.411       .  A
C727        C734   1.445       .  S
C728        C729   1.404   1_556  A
C729        C730   1.402       .  A
C733        N735   1.157       .  T
C734        N736   1.157       .  T
C737        C738   1.405       .  A
C738        C739   1.409   1_655  A
C738        H743   1.085       .  S
C739        C740   1.424       .  A
C739       C1674   1.445       .  S
C740       C1492   1.506       .  S
C741        C742   1.407   1_455  A
C741        H744   1.085       .  S
C742        C745   1.445       .  S
C745        N747   1.158       .  T
C746       C1667   1.445       .  S
C746        N748   1.158   1_565  T
C749        C750   1.404       .  A
C749        C754   1.412       .  A
C750       C1679   1.393       .  A
C750        H755   1.085       .  S
C751       C1678   1.393   1_545  A
C751        C752   1.406       .  A
C751        C758   1.445       .  S
C752       C1681   1.403       .  A
C753       C1680   1.403       .  A
C753        C754   1.404       .  A
C753        H756   1.084       .  S
C754        C757   1.443       .  S
C757        N759   1.157       .  T
C758        N760   1.157       .  T
C761        C762   1.408       .  A
C761        C766   1.420       .  A
C762        C763   1.405       .  A
C762        H767   1.084       .  S
C763        C764   1.409       .  A
C763        C770   1.444       .  S
C764        C765   1.396       .  A
C765        C766   1.398       .  A
C765        H768   1.086       .  S
C766        C769   1.445       .  S
C769        N771   1.157       .  T
C770        N772   1.157       .  T
C773        C774   1.409       .  A
C773        C778   1.416   1_455  A
C774        C775   1.405   1_455  A
C774        H779   1.085       .  S
C775        C776   1.417       .  A
C775        C782   1.445       .  S
C776       C1514   1.501       .  S
C776        C777   1.409       .  A
C777        C778   1.409       .  A
C777        H780   1.085       .  S
C778        C781   1.443       .  S
C781        N783   1.157       .  T
C782       N1712   1.158       .  T
N784       C1710   1.158       .  T
C785        C786   1.410       .  A
C785        C790   1.415   1_455  A
C786        C787   1.399       .  A
C786        H791   1.085       .  S
C787        C788   1.412   1_455  A
C787        C794   1.445       .  S
C788        C789   1.406       .  A
C789        C790   1.398       .  A
C789        H792   1.085       .  S
C790        C793   1.444       .  S
C793        N795   1.157       .  T
C794        N796   1.157       .  T
C797        C798   1.401       .  A
C797        C802   1.415       .  A
C798        C799   1.400       .  A
C798        H803   1.085       .  S
C799        C800   1.412       .  A
C799        C806   1.443       .  S
C800        C801   1.402       .  A
C801        C802   1.401       .  A
C801        H804   1.086       .  S
C802        C805   1.446       .  S
C806        N808   1.157       .  T
C809        C810   1.405       .  A
C809        C814   1.418       .  A
C810        C811   1.391       .  A
C810        H815   1.085       .  S
C811        C812   1.412       .  A
C811        C818   1.447       .  S
C812       C1498   1.473       .  S
C812        C813   1.402       .  A
C813        C814   1.405       .  A
C813        H816   1.084       .  S
C814        C817   1.443       .  S
C818        N820   1.157       .  T
C821        C822   1.409       .  A
C821        C826   1.420       .  A
C822        C823   1.410       .  A
C822        H827   1.085       .  S
C823        C824   1.419       .  A
C823        C830   1.443       .  S
C824        C825   1.406       .  A
C825        C826   1.402       .  A
C825        H828   1.085       .  S
C826        C829   1.445       .  S
C829        N831   1.157       .  T
C830        N832   1.157       .  T
C833        C834   1.411       .  A
C833        C838   1.414       .  A
C834        C835   1.407       .  A
C834        H839   1.085       .  S
C835        C836   1.407       .  A
C835        C842   1.443       .  S
C836        C837   1.401       .  A
C837        C838   1.395       .  A
C837        H840   1.086       .  S
C838        C841   1.445       .  S
C841        N843   1.157       .  T
C842        N844   1.157       .  T
C845        C846   1.403       .  A
C845        C850   1.421       .  A
C846        C847   1.397       .  A
C846        H851   1.085       .  S
C847        C848   1.419       .  A
C847        C854   1.446       .  S
C848        C849   1.406       .  A
C849        C850   1.412       .  A
C849        H852   1.084       .  S
C850        C853   1.444       .  S
C853        N855   1.158       .  T
C857        C858   1.399       .  A
C857        C862   1.410       .  A
C858        C859   1.395       .  A
C858        H863   1.085       .  S
C859        C860   1.414       .  A
C859        C866   1.445       .  S
C860        C861   1.403       .  A
C861        C862   1.400       .  A
C861        H864   1.085       .  S
C862        C865   1.443       .  S
C865        N867   1.157       .  T
C866        N868   1.157       .  T
C869        C870   1.405       .  A
C869        C874   1.407       .  A
C870        C871   1.404       .  A
C870        H875   1.085       .  S
C871        C872   1.415       .  A
C871       C1806   1.443       .  S
C872       C1520   1.481       .  S
C872        C873   1.407       .  A
C873        C874   1.390       .  A
C873        H876   1.085       .  S
C874        C877   1.445       .  S
C877        N879   1.157       .  T
C878       C1799   1.443       .  S
C878        N880   1.157       .  T
C881        C882   1.408       .  A
C881        C886   1.418       .  A
C882        C883   1.403       .  A
C882        H887   1.085       .  S
C883        C884   1.417       .  A
C883        C890   1.445       .  S
C884        C885   1.406       .  A
C885        C886   1.405       .  A
C885        H888   1.085       .  S
C886        C889   1.443       .  S
C889        N891   1.157       .  T
C890        N892   1.158       .  T
C893        C894   1.410       .  A
C893        C898   1.414       .  A
C894        C895   1.411       .  A
C894        H899   1.084       .  S
C895        C896   1.414       .  A
C895        C902   1.443       .  S
C896        C897   1.407       .  A
C897        C898   1.392       .  A
C897        H900   1.085       .  S
C898        C901   1.447       .  S
C901        N903   1.158       .  T
C902        N904   1.157       .  T
C905        C906   1.412       .  A
C905        C910   1.416       .  A
C906        C907   1.407       .  A
C906        H911   1.084       .  S
C907        C908   1.409       .  A
C907        C914   1.443       .  S
C908        C909   1.404       .  A
C909        C910   1.400       .  A
C909        H912   1.085       .  S
C910        C913   1.445       .  S
C913        N915   1.157       .  T
C914        N916   1.157       .  T
C917        C918   1.405       .  A
C917        C922   1.407       .  A
C918        C919   1.398       .  A
C918        H923   1.084       .  S
C919        C920   1.405       .  A
C919        C926   1.444       .  S
C920        C921   1.405       .  A
C921        C922   1.403       .  A
C921        H924   1.085       .  S
C922        C925   1.442       .  S
C925        N927   1.157       .  T
C926        N928   1.157       .  T
O929       Cr947   2.013       .  S
O929        C937   1.265       .  A
O930       Cr947   1.965       .  S
O930        C931   1.261       .  A
C931        O932   1.265       .  A
C931       C1333   1.470       .  S
O932       Cr948   2.007       .  S
O933       Cr948   1.995       .  S
O933        C934   1.258       .  A
C934        O935   1.258       .  A
C934       C1384   1.467       .  S
O935       Cr949   1.984       .  S
O936       Cr949   1.982       .  S
O936        C937   1.260       .  A
C937       C1369   1.496       .  S
O938       Cr947   1.978       .  S
O938        C946   1.261       .  A
O939       Cr947   1.986       .  S
O939        C940   1.264       .  A
C940        O941   1.266       .  A
C940       C1360   1.493       .  S
O941       Cr948   2.000       .  S
O942       Cr948   2.025       .  S
O942        C943   1.272       .  A
C943        O944   1.264       .  A
C943       C1345   1.498       .  S
O944       Cr949   1.976       .  S
O945       Cr949   1.996       .  S
O945        C946   1.264       .  A
C946       C1324   1.473       .  S
Cr947       O950   1.765       .  S
Cr948       O950   1.777       .  S
Cr949       O950   1.765       .  S
O951       Cr969   2.015       .  S
O951        C959   1.266       .  A
O952       Cr969   1.960       .  S
O952        C953   1.260       .  A
C953        O954   1.267       .  A
C953       C1273   1.485       .  S
O954       Cr970   2.014       .  S
O955       Cr970   1.998       .  S
O955        C956   1.258       .  A
C956        O957   1.258       .  A
C956       C1381   1.473       .  S
O957       Cr971   1.985       .  S
O958       Cr971   1.971       .  S
O958        C959   1.259       .  A
C959       C1297   1.487       .  S
O960       Cr969   1.985       .  S
O960        C968   1.261       .  A
O961       Cr969   1.993   1_556  S
O961       C1426   1.264       .  A
C962       O1425   1.264       .  A
C962       O1427   1.267       .  A
C962       C1312   1.493       .  S
O963       Cr970   2.005   1_556  S
O963       C1426   1.268       .  A
O964       Cr970   2.039       .  S
O964        C965   1.275       .  A
C965        O966   1.265       .  A
C965       C1288   1.503       .  S
O966       Cr971   1.972       .  S
O967       Cr971   2.001       .  S
O967        C968   1.263       .  A
C968       C1261   1.476       .  S
Cr969       O972   1.768       .  S
Cr970       O972   1.781       .  S
Cr971       O972   1.768       .  S
O973       Cr991   1.988       .  S
O973        C981   1.257       .  A
O974       Cr991   2.005       .  S
O974        C975   1.264       .  A
C975        O976   1.260       .  A
C975       C1228   1.468       .  S
O976       Cr992   1.980       .  S
O977       Cr992   2.021       .  S
O977        C978   1.271       .  A
C978        O979   1.258       .  A
C978       C1249   1.488       .  S
O979       Cr993   1.958       .  S
O980       Cr993   2.010       .  S
O980        C981   1.266       .  A
C981       C1309   1.497       .  S
O982       Cr991   2.029       .  S
O982        C990   1.270       .  A
O983       Cr991   1.966       .  S
O983        C984   1.260       .  A
C984        O985   1.270       .  A
C984       C1300   1.474       .  S
O985       Cr992   2.024       .  S
O986       Cr992   2.000       .  S
O986        C987   1.266       .  A
C987        O988   1.266       .  A
C987       C1237   1.502       .  S
O988       Cr993   2.012       .  S
O989       Cr993   1.950       .  S
O989        C990   1.257       .  A
C990       C1213   1.471       .  S
Cr991       O994   1.774       .  S
Cr992       O994   1.770       .  S
Cr993       O994   1.760       .  S
O995      Cr1013   1.992       .  S
O995       C1003   1.257       .  A
O996      Cr1013   2.001       .  S
O996        C997   1.264       .  A
C997        O998   1.264       .  A
C997       C1192   1.476       .  S
O998      Cr1014   1.994       .  S
O999      Cr1014   2.023       .  S
O999       C1000   1.269       .  A
C1000      O1001   1.256       .  A
C1000      C1252   1.482       .  S
O1001     Cr1015   1.960       .  S
O1002     Cr1015   1.996       .  S
O1002      C1003   1.260       .  A
C1003      C1357   1.489       .  S
O1004     Cr1013   2.029       .  S
O1004      C1012   1.271       .  A
O1005     Cr1477   1.970   1_554  S
O1005      C1006   1.261       .  A
C1006      O1007   1.270       .  A
C1006      C1372   1.484       .  S
O1007     Cr1478   2.024       .  S
O1008     Cr1478   2.014       .  S
O1008      C1473   1.271   1_554  A
C1009      O1472   1.271       .  A
C1009      O1010   1.264       .  A
C1009      C1665   1.506       .  S
O1010     Cr1015   2.004       .  S
O1011     Cr1015   1.948       .  S
O1011      C1012   1.257       .  A
C1012      C1177   1.467       .  S
Cr1013     O1469   1.970       .  S
Cr1013     O1016   1.775       .  S
Cr1014     O1471   2.022       .  S
Cr1014     O1472   2.014       .  S
Cr1014     O1016   1.771       .  S
Cr1015     O1016   1.759       .  S
O1017     Cr1035   1.997       .  S
O1017      C1025   1.261       .  A
O1018     Cr1035   1.963       .  S
O1018      C1019   1.255       .  A
C1019      O1020   1.271       .  A
C1019      C1165   1.476       .  S
O1020     Cr1036   2.023       .  S
O1021     Cr1036   1.991       .  S
O1021      C1022   1.264       .  A
C1022      O1023   1.265       .  A
C1022      C1264   1.475       .  S
O1023     Cr1037   2.003       .  S
O1024     Cr1037   1.987       .  S
O1024      C1025   1.257       .  A
C1025      C1144   1.481       .  S
O1026     Cr1035   1.945       .  S
O1026      C1034   1.256       .  A
O1027     Cr1035   2.010       .  S
O1027      C1028   1.265       .  A
C1028      O1029   1.270       .  A
O1029     Cr1036   2.011       .  S
O1030     Cr1036   2.026   1_556  S
O1030      C1495   1.271       .  A
C1031      O1494   1.271       .  A
C1031      O1496   1.260       .  A
C1031      C1153   1.501       .  S
O1032     Cr1037   1.975   1_556  S
O1032      C1495   1.261       .  A
O1033     Cr1037   2.028       .  S
O1033      C1034   1.271       .  A
Cr1035     O1038   1.759       .  S
Cr1036     O1038   1.765       .  S
Cr1037     O1038   1.768       .  S
O1039     Cr1057   1.972       .  S
O1039      C1047   1.260       .  A
O1040     Cr1057   1.974       .  S
O1040      C1041   1.254       .  A
C1041      O1042   1.261       .  A
C1041      C1168   1.477       .  S
O1042     Cr1058   2.006       .  S
O1043     Cr1058   2.008       .  S
O1043      C1044   1.265       .  A
C1044      O1045   1.259       .  A
C1044      C1321   1.465       .  S
O1045     Cr1059   1.967       .  S
O1046     Cr1059   2.024       .  S
O1046      C1047   1.267       .  A
C1047      C1129   1.490       .  S
O1048     Cr1057   1.981       .  S
O1048      C1056   1.259       .  A
O1049     Cr1057   1.987       .  S
O1049      C1050   1.269       .  A
C1050      O1051   1.275       .  A
O1051     Cr1058   2.028       .  S
O1052     Cr1058   1.991       .  S
O1052      C1053   1.265       .  A
C1053      O1054   1.264       .  A
C1053      C1120   1.481       .  S
O1054     Cr1059   1.991       .  S
O1055     Cr1059   1.993       .  S
O1055      C1056   1.260       .  A
Cr1057     O1060   1.765       .  S
Cr1058     O1060   1.774       .  S
Cr1059     O1060   1.774       .  S
O1061     Cr1079   1.982       .  S
O1061      C1069   1.262       .  A
O1062     Cr1079   1.979       .  S
O1062      C1063   1.257       .  A
C1063      O1064   1.257       .  A
C1063      C1105   1.463       .  S
O1064     Cr1080   1.992       .  S
O1065     Cr1080   1.998       .  S
O1065      C1066   1.262       .  A
C1066      O1067   1.262       .  A
C1066      C1216   1.464       .  S
O1067     Cr1081   1.972       .  S
O1068     Cr1081   2.021       .  S
O1068      C1069   1.269       .  A
C1069      C1156   1.490       .  S
O1070     Cr1079   1.993       .  S
O1070      C1078   1.261       .  A
O1071     Cr1079   1.986       .  S
O1071      C1072   1.266       .  A
C1072      O1073   1.269       .  A
C1072      C1348   1.495       .  S
O1073     Cr1080   2.013       .  S
O1074     Cr1080   1.984       .  S
O1074      C1075   1.261       .  A
C1075      O1076   1.263       .  A
C1075      C1141   1.467       .  S
O1076     Cr1081   1.993       .  S
O1077     Cr1081   1.992       .  S
O1077      C1078   1.261       .  A
C1078      C1225   1.488       .  S
Cr1079     O1082   1.766       .  S
Cr1080     O1082   1.775       .  S
Cr1081     O1082   1.772       .  S
O1083     Cr1101   1.985       .  S
O1083      C1091   1.261       .  A
O1084     Cr1101   1.982       .  S
O1084      C1085   1.259       .  A
C1085      O1086   1.259       .  A
C1085      C1108   1.474       .  S
O1086     Cr1102   1.994       .  S
O1087     Cr1102   2.007       .  S
O1087      C1088   1.265       .  A
C1088      O1089   1.261       .  A
C1088      C1180   1.476       .  S
O1089     Cr1103   1.969       .  S
O1090     Cr1103   2.015       .  S
O1090      C1091   1.264       .  A
C1091      C1117   1.485       .  S
O1092     Cr1101   2.007       .  S
O1092      C1100   1.264       .  A
O1093     Cr1101   1.990       .  S
O1093      C1094   1.268       .  A
C1094      O1559   1.272       .  A
C1094      C1749   1.502       .  S
O1095     Cr1566   2.017       .  S
O1095      C1558   1.272       .  A
O1096     Cr1566   1.992   1_554  S
O1096      C1097   1.264       .  A
C1097      O1098   1.265       .  A
C1097      C1132   1.485       .  S
O1098     Cr1567   1.994   1_554  S
O1099     Cr1103   1.986       .  S
O1099      C1100   1.262       .  A
C1100      C1189   1.480       .  S
Cr1101     O1104   1.769       .  S
Cr1102     O1559   2.017       .  S
Cr1102     O1560   1.993       .  S
Cr1102     O1104   1.776       .  S
Cr1103     O1562   1.993       .  S
Cr1103     O1104   1.768       .  S
C1105      C1106   1.405       .  A
C1105      C1110   1.406       .  A
C1106      C1107   1.405       .  A
C1106      H1111   1.085       .  S
C1107      C1108   1.410       .  A
C1107      C1114   1.443       .  S
C1108      C1109   1.404       .  A
C1109      C1110   1.392       .  A
C1109      H1112   1.086       .  S
C1110      C1113   1.446       .  S
C1113      N1115   1.157       .  T
C1114      N1116   1.157       .  T
C1117      C1118   1.406       .  A
C1117      C1122   1.413       .  A
C1118      C1119   1.408       .  A
C1118      H1123   1.085       .  S
C1119      C1120   1.414       .  A
C1119      C1126   1.444       .  S
C1120      C1121   1.402       .  A
C1121      C1122   1.398       .  A
C1121      H1124   1.084       .  S
C1122      C1125   1.443       .  S
C1125      N1127   1.157       .  T
C1126      N1128   1.157       .  T
C1129      C1130   1.405       .  A
C1129      C1134   1.415       .  A
C1130      C1131   1.396       .  A
C1130      H1135   1.085       .  S
C1131      C1132   1.412       .  A
C1131      C1138   1.445       .  S
C1132      C1133   1.407       .  A
C1133      C1134   1.410       .  A
C1133      H1136   1.084       .  S
C1134      C1137   1.443       .  S
C1137      N1139   1.157       .  T
C1138      N1140   1.157       .  T
C1141      C1142   1.400       .  A
C1141      C1146   1.407       .  A
C1142      C1143   1.395       .  A
C1142      H1147   1.086       .  S
C1143      C1144   1.413       .  A
C1143      C1150   1.445       .  S
C1144      C1145   1.409       .  A
C1145      C1146   1.406       .  A
C1145      H1148   1.085       .  S
C1146      C1149   1.443       .  S
C1149      N1151   1.157       .  T
C1150      N1152   1.157       .  T
C1153      C1154   1.410       .  A
C1153      C1158   1.421       .  A
C1154      C1155   1.405       .  A
C1154      H1159   1.084       .  S
C1155      C1156   1.413       .  A
C1155      C1162   1.444       .  S
C1156      C1157   1.404       .  A
C1157      C1158   1.403       .  A
C1157      H1160   1.085       .  S
C1158      C1161   1.445       .  S
C1161      N1627   1.157       .  T
C1162      N1164   1.157       .  T
N1163      C1625   1.157       .  T
C1165      C1166   1.397   1_455  A
C1165      C1170   1.416       .  A
C1166      C1167   1.392       .  A
C1166      H1171   1.086       .  S
C1167      C1168   1.417       .  A
C1167      C1174   1.444       .  S
C1168      C1169   1.403   1_655  A
C1169      C1170   1.405       .  A
C1169      H1172   1.085       .  S
C1170      C1173   1.444       .  S
C1173      N1175   1.157       .  T
C1174      N1176   1.157       .  T
C1177      C1178   1.402       .  A
C1177      C1182   1.409       .  A
C1178      C1179   1.405   1_565  A
C1178      H1647   1.085       .  S
C1180      C1181   1.402       .  A
C1181      H1184   1.084       .  S
C1182      C1185   1.446       .  S
H1183      C1642   1.085       .  S
C1185      N1187   1.157       .  T
C1186      N1188   1.157       .  T
C1189      C1190   1.406       .  A
C1189      C1194   1.412       .  A
C1190      C1191   1.403       .  A
C1190      H1195   1.085       .  S
C1191      C1192   1.410       .  A
C1191      C1198   1.445       .  S
C1192      C1193   1.404       .  A
C1193      C1194   1.402       .  A
C1193      H1660   1.085       .  S
C1194      C1661   1.444       .  S
H1196      C1657   1.085       .  S
C1197      C1658   1.445       .  S
C1197      N1199   1.157       .  T
C1198      N1200   1.157       .  T
C1201      C1473   1.508   1_554  S
C1201      C1202   1.405       .  A
C1201      C1670   1.425   1_554  A
C1202      C1203   1.410   1_655  A
C1202      H1207   1.085       .  S
C1203      C1204   1.425   1_565  A
C1204      C1669   1.404   1_544  A
C1205      C1668   1.403   1_565  A
C1205      C1206   1.406   1_455  A
C1205      H1208   1.085   1_565  S
C1206      C1665   1.425       .  A
C1206      C1209   1.445       .  S
C1209      N1211   1.158       .  T
C1210      N1212   1.158       .  T
C1213      C1214   1.404       .  A
C1213      C1218   1.411       .  A
C1214      H1219   1.085       .  S
C1215      C1216   1.406       .  A
C1215      C1222   1.445       .  S
C1217      C1218   1.403   1_545  A
C1217      H1220   1.084       .  S
C1218      C1221   1.443       .  S
C1221      N1223   1.157       .  T
C1222      N1224   1.157       .  T
C1225      C1226   1.408       .  A
C1225      C1230   1.420       .  A
C1226      C1227   1.404       .  A
C1226      H1231   1.084       .  S
C1227      C1228   1.409       .  A
C1227      C1234   1.444       .  S
C1228      C1229   1.396       .  A
C1229      C1230   1.397       .  A
C1229      H1232   1.086       .  S
C1230      C1233   1.445       .  S
C1233      N1235   1.157       .  T
C1234      N1236   1.157       .  T
C1237      C1238   1.409       .  A
C1237      C1242   1.416   1_455  A
C1238      C1239   1.405   1_455  A
C1238      H1243   1.085       .  S
C1239      C1240   1.416       .  A
C1239      C1246   1.445   1_565  S
C1240      C1241   1.409       .  A
C1241      C1242   1.409       .  A
C1241      H1244   1.085       .  S
C1242      C1245   1.443       .  S
C1245      N1247   1.157       .  T
C1249      C1250   1.410       .  A
C1249      C1254   1.415   1_455  A
C1250      C1251   1.399       .  A
C1250      H1255   1.085       .  S
C1251      C1252   1.413   1_455  A
C1251      C1258   1.445       .  S
C1252      C1253   1.406       .  A
C1253      C1254   1.398       .  A
C1253      H1256   1.085       .  S
C1254      C1257   1.444       .  S
C1257      N1259   1.157       .  T
C1258      N1260   1.157       .  T
C1261      C1262   1.401       .  A
C1261      C1266   1.415       .  A
C1262      C1263   1.401       .  A
C1262      H1267   1.085   1_554  S
C1263      C1264   1.413       .  A
C1263      C1270   1.443   1_554  S
C1264      C1265   1.402       .  A
C1265      C1266   1.401       .  A
C1265      H1268   1.085       .  S
C1266      C1269   1.446       .  S
C1269      N1735   1.158       .  T
C1270      N1272   1.157       .  T
N1271      C1733   1.158       .  T
C1273      C1274   1.405       .  A
C1273      C1278   1.418       .  A
C1274      C1275   1.391       .  A
C1274      H1279   1.085       .  S
C1275      C1276   1.412       .  A
C1275      C1282   1.447       .  S
C1276      C1277   1.402       .  A
C1277      C1278   1.405       .  A
C1277      H1280   1.084       .  S
C1278      C1281   1.443       .  S
C1281      N1747   1.157   1_554  T
C1282      N1284   1.157       .  T
N1283      C1745   1.157       .  T
C1285      C1558   1.503   1_554  S
C1285      C1286   1.409       .  A
C1285      C1290   1.420       .  A
C1286      C1287   1.410       .  A
C1286      H1291   1.085   1_554  S
C1287      C1288   1.419       .  A
C1287      C1294   1.443       .  S
C1288      C1289   1.406       .  A
C1289      C1290   1.402       .  A
C1289      H1292   1.085       .  S
C1290      C1293   1.445       .  S
C1293      N1295   1.157       .  T
C1294      N1296   1.157       .  T
C1297      C1298   1.411       .  A
C1297      C1302   1.414       .  A
C1298      C1299   1.408       .  A
C1298      H1303   1.085       .  S
C1299      C1300   1.407       .  A
C1299      C1306   1.443       .  S
C1300      C1301   1.401       .  A
C1301      C1302   1.396       .  A
C1301      H1304   1.086       .  S
C1302      C1305   1.445       .  S
C1305      N1307   1.157       .  T
C1306      N1308   1.157       .  T
C1309      C1310   1.403       .  A
C1309      C1314   1.420       .  A
C1310      C1311   1.396       .  A
C1310      H1315   1.085       .  S
C1311      C1312   1.419       .  A
C1311      C1318   1.446       .  S
C1312      C1313   1.406       .  A
C1313      C1314   1.412       .  A
C1313      H1316   1.084       .  S
C1314      C1317   1.443       .  S
C1317      N1319   1.158       .  T
C1318      N1784   1.157       .  T
N1320      C1782   1.157       .  T
C1321      C1322   1.399       .  A
C1321      C1326   1.410       .  A
C1322      C1323   1.395       .  A
C1322      H1327   1.085       .  S
C1323      C1324   1.414       .  A
C1323      C1330   1.445       .  S
C1324      C1325   1.403       .  A
C1325      C1326   1.400       .  A
C1325      H1328   1.085       .  S
C1326      C1329   1.443       .  S
C1329      N1331   1.157       .  T
C1330      N1332   1.157       .  T
C1333      C1334   1.405       .  A
C1333      C1338   1.407       .  A
C1334      C1335   1.404       .  A
C1334      H1339   1.085       .  S
C1335      C1336   1.415       .  A
C1336      C1337   1.407       .  A
C1337      C1338   1.390       .  A
C1337      H1340   1.085       .  S
C1338      C1341   1.445       .  S
C1341      N1343   1.157       .  T
C1342      N1344   1.157       .  T
C1345      C1346   1.408       .  A
C1345      C1350   1.418       .  A
C1346      C1347   1.402       .  A
C1346      H1351   1.085       .  S
C1347      C1348   1.417       .  A
C1347      C1354   1.445       .  S
C1348      C1349   1.406       .  A
C1349      C1350   1.405       .  A
C1349      H1352   1.085       .  S
C1350      C1353   1.443       .  S
C1353      N1355   1.157       .  T
C1354      N1356   1.158       .  T
C1357      C1358   1.410       .  A
C1357      C1362   1.414       .  A
C1358      C1359   1.411       .  A
C1358      H1363   1.084       .  S
C1359      C1360   1.414       .  A
C1359      C1366   1.443       .  S
C1360      C1361   1.407       .  A
C1361      C1362   1.392       .  A
C1361      H1364   1.085       .  S
C1362      C1365   1.447       .  S
C1365      N1367   1.158       .  T
C1366      N1368   1.157       .  T
C1369      C1370   1.412       .  A
C1369      C1374   1.416       .  A
C1370      C1371   1.407       .  A
C1370      H1375   1.084       .  S
C1371      C1372   1.409       .  A
C1371      C1378   1.443       .  S
C1372      C1373   1.404       .  A
C1373      C1374   1.400       .  A
C1373      H1376   1.085       .  S
C1374      C1377   1.445       .  S
C1377      N1379   1.157       .  T
C1378      N1380   1.157       .  T
C1381      C1382   1.405       .  A
C1381      C1386   1.407       .  A
C1382      C1383   1.399       .  A
C1382      H1387   1.084       .  S
C1383      C1384   1.406       .  A
C1383      C1390   1.445       .  S
C1384      C1385   1.405       .  A
C1385      C1386   1.403       .  A
C1385      H1388   1.085       .  S
C1386      C1389   1.442       .  S
C1389      N1391   1.157       .  T
C1390      N1392   1.157       .  T
O1393     Cr1411   2.013       .  S
O1393      C1401   1.265       .  A
O1394     Cr1411   1.965       .  S
O1394      C1395   1.261       .  A
C1395      O1396   1.265       .  A
C1395      C1797   1.470       .  S
O1396     Cr1412   2.008       .  S
O1397     Cr1412   1.993       .  S
O1397      C1398   1.258       .  A
C1398      O1399   1.258       .  A
C1398      C1848   1.466       .  S
O1399     Cr1413   1.984       .  S
O1400     Cr1413   1.982       .  S
O1400      C1401   1.260       .  A
C1401      C1833   1.495       .  S
O1402     Cr1411   1.977       .  S
O1402      C1410   1.261       .  A
O1403     Cr1411   1.986       .  S
O1403      C1404   1.264       .  A
C1404      O1405   1.266       .  A
C1404      C1824   1.493       .  S
O1405     Cr1412   1.999       .  S
O1406     Cr1412   2.026       .  S
O1406      C1407   1.272       .  A
C1407      O1408   1.264       .  A
C1407      C1809   1.499       .  S
O1408     Cr1413   1.976       .  S
O1409     Cr1413   1.996       .  S
O1409      C1410   1.264       .  A
C1410      C1788   1.473       .  S
Cr1411     O1414   1.765       .  S
Cr1412     O1414   1.776       .  S
Cr1413     O1414   1.765       .  S
O1415     Cr1433   2.014       .  S
O1415      C1423   1.265       .  A
O1416     Cr1433   1.959       .  S
O1416      C1417   1.260       .  A
C1417      O1418   1.267       .  A
C1417      C1737   1.484       .  S
O1418     Cr1434   2.014       .  S
O1419     Cr1434   1.997       .  S
O1419      C1420   1.258       .  A
C1420      O1421   1.258       .  A
C1420      C1845   1.473       .  S
O1421     Cr1435   1.985       .  S
O1422     Cr1435   1.970       .  S
O1422      C1423   1.258       .  A
C1423      C1761   1.486       .  S
O1424     Cr1433   1.984       .  S
O1424      C1432   1.261       .  A
O1425     Cr1433   1.992       .  S
C1426      C1776   1.494       .  S
O1427     Cr1434   2.004       .  S
O1428     Cr1434   2.038       .  S
O1428      C1429   1.275       .  A
C1429      O1430   1.264       .  A
C1429      C1752   1.502       .  S
O1430     Cr1435   1.971       .  S
O1431     Cr1435   2.001       .  S
O1431      C1432   1.263       .  A
C1432      C1725   1.475       .  S
Cr1433     O1436   1.768       .  S
Cr1434     O1436   1.780       .  S
Cr1435     O1436   1.767       .  S
O1437     Cr1455   1.988       .  S
O1437      C1445   1.258       .  A
O1438     Cr1455   2.006       .  S
O1438      C1439   1.264       .  A
C1439      O1440   1.260       .  A
C1439      C1692   1.469       .  S
O1440     Cr1456   1.982       .  S
O1441     Cr1456   2.021       .  S
O1441      C1442   1.271       .  A
C1442      O1443   1.258       .  A
C1442      C1713   1.488       .  S
O1443     Cr1457   1.958       .  S
O1444     Cr1457   2.011       .  S
O1444      C1445   1.266       .  A
C1445      C1773   1.498       .  S
O1446     Cr1455   2.029       .  S
O1446      C1454   1.270       .  A
O1447     Cr1455   1.965       .  S
O1447      C1448   1.259       .  A
C1448      O1449   1.269       .  A
C1448      C1764   1.473       .  S
O1449     Cr1456   2.023       .  S
O1450     Cr1456   2.000       .  S
O1450      C1451   1.266       .  A
C1451      O1452   1.266       .  A
C1451      C1701   1.502       .  S
O1452     Cr1457   2.012       .  S
O1453     Cr1457   1.950       .  S
O1453      C1454   1.256       .  A
C1454      C1677   1.472       .  S
Cr1455     O1458   1.774       .  S
Cr1456     O1458   1.770       .  S
Cr1457     O1458   1.760       .  S
O1459     Cr1477   1.992       .  S
O1459      C1467   1.257       .  A
O1460     Cr1477   2.001   1_554  S
O1460      C1461   1.264   1_554  A
C1461      O1462   1.264       .  A
C1461      C1656   1.476       .  S
O1462     Cr1478   1.993   1_556  S
O1463     Cr1478   2.022   1_556  S
O1463      C1464   1.269       .  A
C1464      O1465   1.256       .  A
C1464      C1716   1.482       .  S
O1465     Cr1479   1.959       .  S
O1466     Cr1479   1.997       .  S
O1466      C1467   1.260       .  A
C1467      C1821   1.489       .  S
O1468     Cr1477   2.028       .  S
O1468      C1476   1.270       .  A
O1469      C1470   1.261       .  A
C1470      O1471   1.269       .  A
C1470      C1836   1.483       .  S
C1473      O1474   1.265       .  A
O1474     Cr1479   2.005       .  S
O1475     Cr1479   1.947       .  S
O1475      C1476   1.257       .  A
C1476      C1641   1.467       .  S
Cr1477     O1480   1.775       .  S
Cr1478     O1480   1.771   1_554  S
Cr1479     O1480   1.759       .  S
O1481     Cr1499   1.997       .  S
O1481      C1489   1.261       .  A
O1482     Cr1499   1.963       .  S
O1482      C1483   1.255       .  A
C1483      O1484   1.271       .  A
C1483      C1629   1.476       .  S
O1484     Cr1500   2.022       .  S
O1485     Cr1500   1.989       .  S
O1485      C1486   1.263       .  A
C1486      O1487   1.265       .  A
C1486      C1728   1.474       .  S
O1487     Cr1501   2.003       .  S
O1488     Cr1501   1.986       .  S
O1488      C1489   1.257       .  A
C1489      C1608   1.481       .  S
O1490     Cr1499   1.945       .  S
O1490      C1498   1.256       .  A
O1491     Cr1499   2.009       .  S
O1491      C1492   1.265       .  A
C1492      O1493   1.270       .  A
O1493     Cr1500   2.010       .  S
O1494     Cr1500   2.026       .  S
C1495      C1617   1.501       .  S
O1496     Cr1501   1.974       .  S
O1497     Cr1501   2.028       .  S
O1497      C1498   1.271       .  A
Cr1499     O1502   1.759       .  S
Cr1500     O1502   1.764       .  S
Cr1501     O1502   1.768       .  S
O1503     Cr1521   1.973       .  S
O1503      C1511   1.260       .  A
O1504     Cr1521   1.974       .  S
O1504      C1505   1.254       .  A
C1505      O1506   1.261       .  A
C1505      C1632   1.476       .  S
O1506     Cr1522   2.005       .  S
O1507     Cr1522   2.008       .  S
O1507      C1508   1.265       .  A
C1508      O1509   1.259       .  A
C1508      C1785   1.465       .  S
O1509     Cr1523   1.966       .  S
O1510     Cr1523   2.024       .  S
O1510      C1511   1.267       .  A
C1511      C1593   1.490       .  S
O1512     Cr1521   1.981       .  S
O1512      C1520   1.259       .  A
O1513     Cr1521   1.987       .  S
O1513      C1514   1.269       .  A
C1514      O1515   1.275       .  A
O1515     Cr1522   2.027       .  S
O1516     Cr1522   1.990       .  S
O1516      C1517   1.264       .  A
C1517      O1518   1.264       .  A
C1517      C1584   1.481       .  S
O1518     Cr1523   1.990       .  S
O1519     Cr1523   1.992       .  S
O1519      C1520   1.260       .  A
Cr1521     O1524   1.764       .  S
Cr1522     O1524   1.774       .  S
Cr1523     O1524   1.774       .  S
O1525     Cr1543   1.983       .  S
O1525      C1533   1.262       .  A
O1526     Cr1543   1.979       .  S
O1526      C1527   1.257       .  A
C1527      O1528   1.257       .  A
C1527      C1569   1.463       .  S
O1528     Cr1544   1.992       .  S
O1529     Cr1544   1.999       .  S
O1529      C1530   1.262       .  A
C1530      O1531   1.262       .  A
C1530      C1680   1.465       .  S
O1531     Cr1545   1.973       .  S
O1532     Cr1545   2.021       .  S
O1532      C1533   1.269       .  A
C1533      C1620   1.490       .  S
O1534     Cr1543   1.993       .  S
O1534      C1542   1.261       .  A
O1535     Cr1543   1.987       .  S
O1535      C1536   1.267       .  A
C1536      O1537   1.270       .  A
C1536      C1812   1.495       .  S
O1537     Cr1544   2.014       .  S
O1538     Cr1544   1.983       .  S
O1538      C1539   1.260       .  A
C1539      O1540   1.263       .  A
C1539      C1605   1.467       .  S
O1540     Cr1545   1.993       .  S
O1541     Cr1545   1.993       .  S
O1541      C1542   1.261       .  A
C1542      C1689   1.489       .  S
Cr1543     O1546   1.766       .  S
Cr1544     O1546   1.775       .  S
Cr1545     O1546   1.772       .  S
O1547     Cr1565   1.985       .  S
O1547      C1555   1.261       .  A
O1548     Cr1565   1.981       .  S
O1548      C1549   1.258       .  A
C1549      O1550   1.258       .  A
C1549      C1572   1.474       .  S
O1550     Cr1566   1.994       .  S
O1551     Cr1566   2.007   1_554  S
O1551      C1552   1.265   1_554  A
C1552      O1553   1.261       .  A
C1552      C1644   1.476       .  S
O1553     Cr1567   1.970       .  S
O1554     Cr1567   2.014       .  S
O1554      C1555   1.264       .  A
C1555      C1581   1.484       .  S
O1556     Cr1565   2.006       .  S
O1556      C1564   1.264       .  A
O1557     Cr1565   1.992       .  S
O1557      C1558   1.268       .  A
O1560      C1561   1.264       .  A
C1561      O1562   1.265       .  A
C1561      C1596   1.485       .  S
O1563     Cr1567   1.986       .  S
O1563      C1564   1.262       .  A
C1564      C1653   1.479       .  S
Cr1565     O1568   1.769       .  S
Cr1566     O1568   1.776       .  S
Cr1567     O1568   1.768       .  S
C1569      C1570   1.405       .  A
C1569      C1574   1.406       .  A
C1570      C1571   1.405       .  A
C1570      H1575   1.085       .  S
C1571      C1572   1.410       .  A
C1571      C1578   1.443       .  S
C1572      C1573   1.404       .  A
C1573      C1574   1.392       .  A
C1573      H1576   1.086       .  S
C1574      C1577   1.446       .  S
C1577      N1579   1.157       .  T
C1578      N1580   1.157       .  T
C1581      C1582   1.406       .  A
C1581      C1586   1.412       .  A
C1582      C1583   1.408       .  A
C1582      H1587   1.085       .  S
C1583      C1584   1.414       .  A
C1583      C1590   1.444       .  S
C1584      C1585   1.402       .  A
C1585      C1586   1.398       .  A
C1585      H1588   1.084       .  S
C1586      C1589   1.443       .  S
C1589      N1591   1.157       .  T
C1590      N1592   1.157       .  T
C1593      C1594   1.404       .  A
C1593      C1598   1.415       .  A
C1594      C1595   1.396       .  A
C1594      H1599   1.085       .  S
C1595      C1596   1.412       .  A
C1595      C1602   1.445       .  S
C1596      C1597   1.407       .  A
C1597      C1598   1.410       .  A
C1597      H1600   1.084       .  S
C1598      C1601   1.443       .  S
C1601      N1603   1.157       .  T
C1602      N1604   1.157       .  T
C1605      C1606   1.400       .  A
C1605      C1610   1.406       .  A
C1606      C1607   1.394       .  A
C1606      H1611   1.086       .  S
C1607      C1608   1.413       .  A
C1607      C1614   1.445       .  S
C1608      C1609   1.409       .  A
C1609      C1610   1.406       .  A
C1609      H1612   1.085       .  S
C1610      C1613   1.443       .  S
C1613      N1615   1.157       .  T
C1614      N1616   1.157       .  T
C1617      C1618   1.410       .  A
C1617      C1622   1.420       .  A
C1618      C1619   1.405       .  A
C1618      H1623   1.084       .  S
C1619      C1620   1.413       .  A
C1619      C1626   1.444       .  S
C1620      C1621   1.404       .  A
C1621      C1622   1.404       .  A
C1621      H1624   1.085       .  S
C1622      C1625   1.445       .  S
C1626      N1628   1.157       .  T
C1629      C1630   1.398   1_455  A
C1629      C1634   1.416       .  A
C1630      C1631   1.392       .  A
C1630      H1635   1.086       .  S
C1631      C1632   1.417       .  A
C1631      C1638   1.444       .  S
C1632      C1633   1.403   1_655  A
C1633      C1634   1.405       .  A
C1633      H1636   1.085       .  S
C1634      C1637   1.444       .  S
C1637      N1639   1.157       .  T
C1638      N1640   1.157       .  T
C1641      C1642   1.401   1_556  A
C1641      C1646   1.409       .  A
C1642      C1643   1.404   1_565  A
C1644      C1645   1.402       .  A
C1645      H1648   1.084       .  S
C1646      C1649   1.446       .  S
C1649      N1651   1.157       .  T
C1650      N1652   1.157       .  T
C1653      C1654   1.406       .  A
C1653      C1658   1.411   1_556  A
C1654      C1655   1.403       .  A
C1654      H1659   1.085       .  S
C1655      C1656   1.410       .  A
C1655      C1662   1.445       .  S
C1656      C1657   1.404   1_556  A
C1657      C1658   1.401       .  A
C1661      N1663   1.157       .  T
C1662      N1664   1.157       .  T
C1665      C1666   1.405       .  A
C1666      C1667   1.410   1_655  A
C1666      H1671   1.085       .  S
C1667      C1668   1.424   1_565  A
C1669      C1670   1.407   1_455  A
C1669      H1672   1.085   1_565  S
C1670      C1673   1.445       .  S
C1673      N1675   1.158       .  T
C1674      N1676   1.158       .  T
C1677      C1678   1.404       .  A
C1677      C1682   1.411       .  A
C1678      H1683   1.085       .  S
C1679      C1680   1.406       .  A
C1679      C1686   1.445       .  S
C1681      C1682   1.404   1_545  A
C1681      H1684   1.084       .  S
C1682      C1685   1.443       .  S
C1685      N1687   1.157       .  T
C1686      N1688   1.157       .  T
C1689      C1690   1.408       .  A
C1689      C1694   1.420       .  A
C1690      C1691   1.405       .  A
C1690      H1695   1.084       .  S
C1691      C1692   1.409       .  A
C1691      C1698   1.444       .  S
C1692      C1693   1.396       .  A
C1693      C1694   1.398       .  A
C1693      H1696   1.086       .  S
C1694      C1697   1.445       .  S
C1697      N1699   1.157       .  T
C1698      N1700   1.157       .  T
C1701      C1702   1.409       .  A
C1701      C1706   1.416   1_455  A
C1702      C1703   1.405   1_455  A
C1702      H1707   1.085       .  S
C1703      C1704   1.417       .  A
C1703      C1710   1.445   1_565  S
C1704      C1705   1.409       .  A
C1705      C1706   1.409       .  A
C1705      H1708   1.085       .  S
C1706      C1709   1.443       .  S
C1709      N1711   1.157       .  T
C1713      C1714   1.410       .  A
C1713      C1718   1.415   1_455  A
C1714      C1715   1.399       .  A
C1714      H1719   1.085       .  S
C1715      C1716   1.412   1_455  A
C1715      C1722   1.445       .  S
C1716      C1717   1.406       .  A
C1717      C1718   1.398       .  A
C1717      H1720   1.085       .  S
C1718      C1721   1.444       .  S
C1721      N1723   1.157       .  T
C1722      N1724   1.157       .  T
C1725      C1726   1.401       .  A
C1725      C1730   1.415       .  A
C1726      C1727   1.400       .  A
C1726      H1731   1.085       .  S
C1727      C1728   1.412       .  A
C1727      C1734   1.443       .  S
C1728      C1729   1.402       .  A
C1729      C1730   1.401       .  A
C1729      H1732   1.085       .  S
C1730      C1733   1.446       .  S
C1734      N1736   1.157       .  T
C1737      C1738   1.405       .  A
C1737      C1742   1.418       .  A
C1738      C1739   1.390       .  A
C1738      H1743   1.085       .  S
C1739      C1740   1.412       .  A
C1739      C1746   1.447       .  S
C1740      C1741   1.402       .  A
C1741      C1742   1.404       .  A
C1741      H1744   1.084       .  S
C1742      C1745   1.443       .  S
C1746      N1748   1.157       .  T
C1749      C1750   1.409       .  A
C1749      C1754   1.419       .  A
C1750      C1751   1.409       .  A
C1750      H1755   1.085       .  S
C1751      C1752   1.419       .  A
C1751      C1758   1.443       .  S
C1752      C1753   1.406       .  A
C1753      C1754   1.402       .  A
C1753      H1756   1.085       .  S
C1754      C1757   1.445       .  S
C1757      N1759   1.157       .  T
C1758      N1760   1.157       .  T
C1761      C1762   1.411       .  A
C1761      C1766   1.414       .  A
C1762      C1763   1.407       .  A
C1762      H1767   1.085       .  S
C1763      C1764   1.407       .  A
C1763      C1770   1.443       .  S
C1764      C1765   1.401       .  A
C1765      C1766   1.395       .  A
C1765      H1768   1.086       .  S
C1766      C1769   1.445       .  S
C1769      N1771   1.157       .  T
C1770      N1772   1.157       .  T
C1773      C1774   1.403       .  A
C1773      C1778   1.421       .  A
C1774      C1775   1.397       .  A
C1774      H1779   1.085       .  S
C1775      C1776   1.419       .  A
C1775      C1782   1.446       .  S
C1776      C1777   1.406       .  A
C1777      C1778   1.412       .  A
C1777      H1780   1.084       .  S
C1778      C1781   1.444       .  S
C1781      N1783   1.158       .  T
C1785      C1786   1.399       .  A
C1785      C1790   1.410       .  A
C1786      C1787   1.395       .  A
C1786      H1791   1.085       .  S
C1787      C1788   1.414       .  A
C1787      C1794   1.445       .  S
C1788      C1789   1.403       .  A
C1789      C1790   1.400       .  A
C1789      H1792   1.085       .  S
C1790      C1793   1.443       .  S
C1793      N1795   1.157       .  T
C1794      N1796   1.157       .  T
C1797      C1798   1.405       .  A
C1797      C1802   1.407       .  A
C1798      C1799   1.404       .  A
C1798      H1803   1.085       .  S
C1799      C1800   1.415       .  A
C1800      C1801   1.407       .  A
C1801      C1802   1.390       .  A
C1801      H1804   1.085       .  S
C1802      C1805   1.445       .  S
C1805      N1807   1.157       .  T
C1806      N1808   1.157       .  T
C1809      C1810   1.408       .  A
C1809      C1814   1.418       .  A
C1810      C1811   1.403       .  A
C1810      H1815   1.084       .  S
C1811      C1812   1.417       .  A
C1811      C1818   1.445       .  S
C1812      C1813   1.406       .  A
C1813      C1814   1.405       .  A
C1813      H1816   1.085       .  S
C1814      C1817   1.443       .  S
C1817      N1819   1.157       .  T
C1818      N1820   1.158       .  T
C1821      C1822   1.410       .  A
C1821      C1826   1.414       .  A
C1822      C1823   1.411       .  A
C1822      H1827   1.084       .  S
C1823      C1824   1.414       .  A
C1823      C1830   1.443       .  S
C1824      C1825   1.407       .  A
C1825      C1826   1.392       .  A
C1825      H1828   1.085       .  S
C1826      C1829   1.447       .  S
C1829      N1831   1.158       .  T
C1830      N1832   1.157       .  T
C1833      C1834   1.412       .  A
C1833      C1838   1.416       .  A
C1834      C1835   1.406       .  A
C1834      H1839   1.084       .  S
C1835      C1836   1.409       .  A
C1835      C1842   1.443       .  S
C1836      C1837   1.404       .  A
C1837      C1838   1.400       .  A
C1837      H1840   1.085       .  S
C1838      C1841   1.445       .  S
C1841      N1843   1.157       .  T
C1842      N1844   1.157       .  T
C1845      C1846   1.405       .  A
C1845      C1850   1.407       .  A
C1846      C1847   1.398       .  A
C1846      H1851   1.083       .  S
C1847      C1848   1.405       .  A
C1847      C1854   1.445       .  S
C1848      C1849   1.405       .  A
C1849      C1850   1.403       .  A
C1849      H1852   1.085       .  S
C1850      C1853   1.442       .  S
C1853      N1855   1.157       .  T
C1854      N1856   1.157       .  T
