geometry optimzed in LAMMPS
_audit_creation_date              2020-11-30 
_audit_creation_method            'lammps2cif' 
_symmetry_space_group_name_H-M    'P1' 
_symmetry_Int_Tables_number       1 
_symmetry_cell_setting            triclinic 
loop_ 
_symmetry_equiv_pos_as_xyz 
  x,y,z 
_cell_length_a                    38.9588589 
_cell_length_b                    38.84872621068857 
_cell_length_c                    40.235634745609424 
_cell_angle_alpha                 89.91502125138004 
_cell_angle_beta                  89.73566777587067 
_cell_angle_gamma                 86.04875548518643 
loop_ 
_atom_site_label 
_atom_site_type_symbol 
_atom_site_fract_x 
_atom_site_fract_y 
_atom_site_fract_z 
_atom_site_charge 
O1          O  0.00348529  0.39912432  0.44732683    -0.75200
O2          O  0.00496554  0.44241069  0.40907483    -0.54100
C3          C  0.00417728  0.41043401  0.41725066     0.78500
O4          O  0.39879670  0.99656828  0.06116690    -0.59800
O5          O  0.44172929  0.99228542  0.09971718    -0.52900
C6          C  0.41391574  0.49886445  0.09045502     0.70500
O7          O  0.39939982  0.99929005  0.44835015    -0.74400
O8          O  0.44210941  0.99732671  0.40918344    -0.54900
C9          C  0.41024330  0.99780333  0.41810810     0.76500
O10         O  0.00078655  0.39762238  0.05851247    -0.59500
O11         O  0.00322301  0.43923924  0.09830680    -0.52600
C12         C  0.50003653  0.40862922  0.08632599     0.73100
Zr13       Zr  0.00580937  0.42250421  0.50345950     2.54700
O14         O  0.46953442  0.37325914  0.49942840    -0.80100
O15         O  0.04912761  0.37894358  0.00204220    -0.93500
Zr16       Zr  0.42368295  0.00103847  0.50394119     2.64700
O17         O  0.39024357  0.44946272  0.50227189    -0.98500
O18         O  0.37289758  0.03704357  0.00681550    -0.80500
O19         O  0.46308646  0.46142607  0.47106896    -0.83900
O20         O  0.46407152  0.45901465  0.03467465    -2.18600
O21         O  0.09608447  0.49309693  0.05958462    -0.67300
O22         O  0.05371857  0.49123521  0.09875934    -0.51800
C23         C  0.08545927  0.49241214  0.08995087     0.71500
O24         O  0.49364123  0.09621229  0.44944155    -0.60200
O25         O  0.49582832  0.05394096  0.40994801    -0.52200
C26         C  0.99717342  0.07963457  0.41955668     0.73300
O27         O  0.48620641  0.09067657  0.06340721    -0.71600
O28         O  0.49105885  0.04637720  0.10087245    -0.50200
C29         C  0.48797635  0.07864264  0.09324045     0.74700
O30         O  0.09528580  0.50220498  0.44974497    -0.66900
O31         O  0.05337157  0.49838267  0.41066041    -0.54100
C32         C  0.07986874  0.99593688  0.41880872     0.73100
Zr33       Zr  0.07098450  0.49271923  0.00402642     2.77500
O34         O  0.11222410  0.03307323  0.50601207    -0.97700
O35         O  0.11864577  0.45294151  0.50634440    -0.80200
Zr36       Zr  0.48809644  0.06778655  0.00690401     2.70100
O37         O  0.02935229  0.11458871  0.01368137    -0.79700
O38         O  0.44715237  0.11652133  0.50318789    -0.98800
Zr39       Zr  0.99557132  0.99448436  0.44163546     2.21500
Zr40       Zr  0.49837348  0.49480039  0.06719046     2.11100
O41         O  0.02966849  0.03027916  0.03857178    -2.47500
O42         O  0.03031794  0.03017360  0.47350220    -0.79500
O43         O  0.03716008  0.45585608  0.03551551    -0.71700
O44         O  0.45782527  0.03704516  0.47185741    -2.32700
O45         O  0.03991880  0.45937488  0.47234239    -2.28900
O46         O  0.45485956  0.03096381  0.03864597    -0.73500
H47         H  0.45061875  0.44469496  0.04854049     0.78500
H48         H  0.44325727  0.05177870  0.45769672     0.79600
H49         H  0.04263018  0.04353146  0.05381322     0.81800
H50         H  0.05543188  0.44597132  0.45775407     0.79400
H51         H  0.35699597  0.03602969  0.50498540     0.42500
H52         H  0.42495552  0.10327194  0.02740756     0.41500
H53         H  0.05495213  0.10000977  0.49635312     0.41100
H54         H  0.08736331  0.06331511  0.01942081     0.39100
H55         H  0.10280223  0.42546972  0.01517095     0.42200
H56         H  0.06971920  0.38851596  0.48275548     0.37000
H57         H  0.48651216  0.35431508  0.49286627     0.43100
H58         H  0.36718476  0.45722507  0.99891429     0.39500
H59         H  0.11897089  0.03861912  0.02967868     0.44400
H60         H  0.03846848  0.35710148  0.00705843     0.43200
H61         H  0.39019354  0.44276131  0.47854696     0.43300
H62         H  0.43665191  0.12223224  0.99527956     0.43600
N63         N  0.48853863  0.25166466  0.30341458    -0.36500
N64         N  0.49000667  0.19619697  0.25444284    -0.57100
N65         N  0.48982110  0.24669046  0.20208228    -0.36500
N66         N  0.49161592  0.30190266  0.25104983    -0.57100
C67         C  0.49744524  0.22377221  0.32245017     0.27100
C68         C  0.49678589  0.27981086  0.32062993     0.27100
C69         C  0.49630413  0.21726062  0.18453119     0.27000
C70         C  0.49922288  0.27299288  0.18284157     0.27000
C71         C  0.48328226  0.17843761  0.28233773     0.35700
C72         C  0.48225034  0.17597313  0.22858078     0.35700
C73         C  0.48492078  0.32361323  0.27680791     0.35700
C74         C  0.48684352  0.32087431  0.22317646     0.35700
C75         C  0.51158513  0.23434702  0.35200190    -0.21800
C76         C  0.51095446  0.26974999  0.35093839    -0.21800
C77         C  0.50993668  0.22492017  0.15372301    -0.21800
C78         C  0.51181122  0.26012545  0.15265371    -0.21800
C79         C  0.47122594  0.14679187  0.27415750    -0.22900
C80         C  0.47061578  0.14521823  0.24005982    -0.22900
C81         C  0.47578759  0.35659995  0.26533585    -0.22900
C82         C  0.47697914  0.35487228  0.23123770    -0.22900
C83         C  0.49053098  0.18936895  0.31491630    -0.18200
C84         C  0.49027619  0.31439957  0.31035424    -0.18200
C85         C  0.49414668  0.30843204  0.19078836    -0.18200
C86         C  0.48791618  0.18407373  0.19485589    -0.18200
H87         H  0.52089401  0.21825723  0.37247526     0.14700
H88         H  0.51983507  0.28621768  0.37032192     0.14700
H89         H  0.51719183  0.20706443  0.13387046     0.14700
H90         H  0.52085780  0.27463678  0.13176599     0.14700
H91         H  0.46391716  0.12678532  0.29098823     0.13000
H92         H  0.46281906  0.12377831  0.22541470     0.13000
H93         H  0.46965647  0.37957066  0.27998618     0.13000
H94         H  0.47179981  0.37629987  0.21434929     0.13000
H95         H  0.47396307  0.25174213  0.28181177     0.26200
H96         H  0.47584227  0.24912985  0.22412647     0.26200
N97         N  0.24809074  0.51443260  0.30510191    -0.36500
N98         N  0.19611827  0.50973941  0.25389471    -0.57100
N99         N  0.24907765  0.50916565  0.20327446    -0.36500
N100        N  0.30123182  0.51076756  0.25433768    -0.57100
C101        C  0.22060307  0.50677665  0.32372260     0.27100
C102        C  0.27657060  0.50720428  0.32370444     0.27100
C103        C  0.22219579  0.49854572  0.18581597     0.27000
C104        C  0.27796526  0.49882384  0.18628672     0.27000
C105        C  0.17559245  0.51711405  0.28052299     0.35700
C106        C  0.17622991  0.51481777  0.22657494     0.35700
C107        C  0.32026201  0.51870484  0.28082079     0.35700
C108        C  0.32056161  0.51627427  0.22718625     0.35700
C109        C  0.23177997  0.49480999  0.35462616    -0.21800
C110        C  0.26706536  0.49510479  0.35460989    -0.21800
C111        C  0.23418361  0.48099833  0.15759732    -0.21800
C112        C  0.26944788  0.48129638  0.15783679    -0.21800
C113        C  0.14255273  0.52713773  0.27006308    -0.22900
C114        C  0.14297899  0.52579875  0.23590678    -0.22900
C115        C  0.35176185  0.52952374  0.27048554    -0.22900
C116        C  0.35190702  0.52809778  0.23637436    -0.22900
C117        C  0.18565606  0.51191152  0.31407532    -0.18200
C118        C  0.31070986  0.51299484  0.31410380    -0.18200
C119        C  0.31152512  0.50703527  0.19470608    -0.18200
C120        C  0.18714794  0.50640217  0.19373220    -0.18200
H121        H  0.21618281  0.48670285  0.37514551     0.14700
H122        H  0.28379070  0.48736323  0.37509484     0.14700
H123        H  0.21907553  0.46952261  0.13859305     0.14700
H124        H  0.28683099  0.47013387  0.13908310     0.14700
H125        H  0.12030861  0.53409914  0.28546222     0.13000
H126        H  0.12111846  0.53158985  0.21986392     0.13000
H127        H  0.37269308  0.53691796  0.28593622     0.13000
H128        H  0.37300358  0.53409776  0.22025538     0.13000
H129        H  0.24718144  0.52723301  0.28236669     0.26200
H130        H  0.24758522  0.52606921  0.22336560     0.26200
C131        C  0.13859288  0.51655574  0.11155254    -0.26200
C132        C  0.11167158  0.49477224  0.11643060    -0.14300
C133        C  0.10979068  0.47681802  0.14680640     0.36300
C134        C  0.13458075  0.48080342  0.17148601    -0.25700
C135        C  0.16093990  0.50325228  0.16697460    -0.14900
C136        C  0.16276192  0.52138024  0.13663247     0.37400
N137        N  0.18882917  0.54511099  0.13137012    -0.89200
H138        H  0.14031288  0.53079832  0.08848738     0.18500
H139        H  0.13325533  0.46617368  0.19435720     0.18500
N140        N  0.08001672  0.94394448  0.15069373    -0.88200
H141        H  0.17666527  0.56937626  0.12632671     0.35900
H142        H  0.20306230  0.53715666  0.11031199     0.41000
H143        H  0.06949969  0.46210395  0.17365037     0.40600
H144        H  0.09520234  0.42939177  0.15756467     0.35500
C145        C  0.11015516  0.48286668  0.36519343    -0.26200
C146        C  0.11014221  0.50524162  0.39252588    -0.14300
C147        C  0.13108703  0.02145038  0.39268509     0.36300
C148        C  0.15516004  0.02204164  0.36673350    -0.25700
C149        C  0.15849534  0.51022913  0.34035698    -0.14900
C150        C  0.13435995  0.48482231  0.33945468     0.37400
N151        N  0.13488865  0.46042294  0.31277680    -0.89200
H152        H  0.09182562  0.46312720  0.36422862     0.18500
H153        H  0.17466491  0.04062255  0.36737181     0.18500
N154        N  0.13228025  0.04556548  0.41947493    -0.88200
H155        H  0.11080845  0.46254319  0.30130516     0.35900
H156        H  0.13848053  0.43565091  0.32292332     0.41000
H157        H  0.12991576  0.07047339  0.40948866     0.40600
H158        H  0.15645052  0.04202192  0.43063927     0.35500
C159        C  0.33004891  0.01629724  0.14297965    -0.26200
C160        C  0.33839921  0.50474813  0.16840511    -0.14300
C161        C  0.36663011  0.48006000  0.17006529     0.36300
C162        C  0.39160453  0.47901298  0.14469912    -0.25700
C163        C  0.38799417  0.50130149  0.11724597    -0.14900
C164        C  0.35448643  0.01747844  0.11746667     0.37400
N165        N  0.34964107  0.04256468  0.09147281    -0.89200
H166        H  0.30758965  0.03439006  0.14270587     0.18500
H167        H  0.41341682  0.46016869  0.14585258     0.18500
N168        N  0.36947295  0.45599389  0.19725658    -0.88200
H169        H  0.34750726  0.06706115  0.10232651     0.35900
H170        H  0.32639681  0.03864161  0.07964184     0.41000
H171        H  0.34860691  0.44048504  0.19584671     0.40600
H172        H  0.39170231  0.43954207  0.19479422     0.35500
C173        C  0.33199275  0.02051935  0.36438741    -0.26200
C174        C  0.33782889  0.51176395  0.34009969    -0.14300
C175        C  0.36454645  0.48541326  0.34037973     0.36300
C176        C  0.38893191  0.48421305  0.36598523    -0.25700
C177        C  0.38665930  0.50848990  0.39184818    -0.14900
C178        C  0.35650351  0.02237432  0.38949898     0.37400
N179        N  0.35336395  0.05110449  0.41184416    -0.89200
H180        H  0.31171595  0.04094669  0.36225482     0.18500
H181        H  0.40925523  0.46369116  0.36610346     0.18500
N182        N  0.36653550  0.45948019  0.31504090    -0.88200
H183        H  0.37629161  0.06358850  0.41122896     0.35900
H184        H  0.34954391  0.04187743  0.43587996     0.41000
H185        H  0.36544093  0.43542113  0.32652656     0.40600
H186        H  0.39046084  0.46006026  0.30324275     0.35500
C187        C  0.46150949  0.13144677  0.12047861    -0.26200
C188        C  0.48698641  0.10408252  0.12055558    -0.14300
C189        C  0.01878246  0.10116003  0.14485093     0.36300
C190        C  0.01871666  0.12706291  0.16928136    -0.25700
C191        C  0.48668043  0.15628163  0.16940960    -0.14900
C192        C  0.46097332  0.15734348  0.14465839     0.37400
N193        N  0.43382094  0.18415933  0.14373464    -0.89200
H194        H  0.44189610  0.13271737  0.10140641     0.18500
H195        H  0.03944792  0.12690953  0.18716037     0.18500
N196        N  0.04641499  0.07466784  0.14321636    -0.88200
H197        H  0.44440636  0.20779034  0.13978310     0.35900
H198        H  0.42125877  0.18495365  0.16676646     0.41000
H199        H  0.06413649  0.07784254  0.16222114     0.40600
H200        H  0.05959346  0.07773958  0.12081759     0.35500
C201        C  0.47224113  0.14214668  0.39555481    -0.26200
C202        C  0.49483943  0.11249182  0.39272087    -0.14300
C203        C  0.02021470  0.10125106  0.36541883     0.36300
C204        C  0.01924710  0.12665855  0.34046301    -0.25700
C205        C  0.49188274  0.16333085  0.34228121    -0.14900
C206        C  0.47000530  0.16724936  0.37028111     0.37400
N207        N  0.44538754  0.19648393  0.37268369    -0.89200
H208        H  0.45545129  0.14513760  0.41705756     0.18500
H209        H  0.03640305  0.12355754  0.31924213     0.18500
N210        N  0.04411536  0.07140972  0.36319689    -0.88200
H211        H  0.43130536  0.19559405  0.39481050     0.35900
H212        H  0.42782979  0.19471955  0.35328354     0.41000
H213        H  0.06133762  0.07248869  0.38296579     0.40600
H214        H  0.05877060  0.07216458  0.34140064     0.35500
C215        C  0.02681532  0.38191822  0.14083994    -0.26200
C216        C  0.49871950  0.38235697  0.11222431    -0.14300
C217        C  0.47337462  0.35817990  0.11188863     0.36300
C218        C  0.47239295  0.33421240  0.13784695    -0.25700
C219        C  0.49655033  0.33382136  0.16358021    -0.14900
C220        C  0.02822878  0.35690109  0.16613118     0.37400
N221        N  0.05407778  0.35711183  0.19151479    -0.89200
H222        H  0.04515099  0.40152680  0.14057063     0.18500
H223        H  0.45264425  0.31588065  0.13824482     0.18500
N224        N  0.44846600  0.35851357  0.08560075    -0.88200
H225        H  0.06974115  0.37760462  0.18785953     0.35900
H226        H  0.06993289  0.33442714  0.18907337     0.41000
H227        H  0.43339785  0.38180394  0.08713446     0.40600
H228        H  0.43180726  0.33881319  0.08902072     0.35500
C229        C  0.46578147  0.34485802  0.36047210    -0.26200
C230        C  0.49141077  0.34193589  0.33585715    -0.14300
C231        C  0.02728195  0.36123239  0.33798579     0.36300
C232        C  0.02628869  0.38639098  0.36311703    -0.25700
C233        C  0.49533737  0.38995829  0.38790707    -0.14900
C234        C  0.46778247  0.36839536  0.38666680     0.37400
N235        N  0.44168616  0.37055942  0.41191741    -0.89200
H236        H  0.44453726  0.32827915  0.35968248     0.18500
H237        H  0.04379656  0.40686453  0.36180713     0.18500
N238        N  0.05141927  0.36285000  0.31114789    -0.88200
H239        H  0.44096688  0.34626107  0.42300752     0.35900
H240        H  0.41797817  0.37651096  0.40046878     0.41000
H241        H  0.07615180  0.36220195  0.32119851     0.40600
H242        H  0.04672230  0.38656934  0.29910895     0.35500
O243        O  0.99950951  0.40133285  0.94511624    -0.75200
O244        O  0.00195093  0.44511878  0.90743856    -0.54100
C245        C  0.00104750  0.41313035  0.91519201     0.78500
O246        O  0.40056948  0.00525160  0.56050839    -0.59800
O247        O  0.44373755  0.99854100  0.59871580    -0.52900
C248        C  0.41444410  0.49647539  0.59130839     0.70500
O249        O  0.39770137  0.00090320  0.94955142    -0.74400
O250        O  0.44082671  0.99837685  0.91082102    -0.54900
C251        C  0.40886469  0.00073009  0.91941935     0.76500
O252        O  0.00343826  0.39683514  0.55857748    -0.59500
O253        O  0.00150313  0.43904298  0.59822138    -0.52600
C254        C  0.49952909  0.40836255  0.58722771     0.73100
Zr255      Zr  0.00122328  0.42264144  0.00253116     2.54700
O256        O  0.46899447  0.37467554  0.00167972    -0.80100
O257        O  0.05699554  0.38277256  0.50315382    -0.93500
Zr258      Zr  0.42239126  0.99526034  0.00492488     2.64700
O259        O  0.39110636  0.44701399  0.00080476    -0.98500
O260        O  0.37858174  0.04752908  0.50119650    -0.80500
O261        O  0.46413244  0.46082256  0.97049515    -0.83900
O262        O  0.46373600  0.45981965  0.53522156    -2.18600
O263        O  0.09389369  0.49706289  0.56227215    -0.67300
O264        O  0.05097954  0.49302651  0.60056473    -0.51800
C265        C  0.08270265  0.49524330  0.59238216     0.71500
O266        O  0.49198791  0.09435940  0.95229257    -0.60200
O267        O  0.49436728  0.05228328  0.91263352    -0.52200
C268        C  0.00150890  0.08328962  0.92167419     0.73300
O269        O  0.48865683  0.09230674  0.56219038    -0.71600
O270        O  0.49487111  0.04821694  0.59975874    -0.50200
C271        C  0.49118912  0.08031070  0.59203240     0.74700
O272        O  0.09447538  0.49582664  0.94789472    -0.66900
O273        O  0.05174468  0.49441975  0.90939480    -0.54100
C274        C  0.08319012  0.00063710  0.92003252     0.73100
Zr275      Zr  0.07099360  0.49690114  0.50572346     2.77500
O276        O  0.10315398  0.04425960  0.01096798    -0.97700
O277        O  0.11318856  0.44355943  0.00187078    -0.80200
Zr278      Zr  0.49307715  0.07066185  0.50499431     2.70100
O279        O  0.03435065  0.11093192  0.50761057    -0.79700
O280        O  0.43190033  0.09917928  0.00397151    -0.98800
Zr281      Zr  0.99722547  0.99747605  0.94065963     2.21500
Zr282      Zr  0.49884904  0.49469974  0.56779950     2.11100
O283        O  0.03047875  0.03048870  0.53743276    -2.47500
O284        O  0.03064231  0.03264766  0.97431160    -0.79500
O285        O  0.03862448  0.45834914  0.53691337    -0.71700
O286        O  0.45498481  0.03311151  0.97335128    -2.32700
O287        O  0.03663829  0.45793803  0.97120347    -2.28900
O288        O  0.45818898  0.03537939  0.53685693    -0.73500
H289        H  0.45005252  0.44569508  0.54913955     0.78500
H290        H  0.44029081  0.04776447  0.95923922     0.79600
H291        H  0.04399860  0.04433712  0.55168541     0.81800
H292        H  0.05120818  0.44373543  0.95642960     0.79400
H293        H  0.35309738  0.02313896  0.01163826     0.42500
H294        H  0.43758452  0.11799214  0.52601871     0.41500
H295        H  0.04778976  0.10996357  0.99694208     0.41100
H296        H  0.13128861  0.02222457  0.49248277     0.39100
H297        H  0.11614502  0.43972456  0.48558122     0.42200
H298        H  0.05620225  0.37680186  0.97842983     0.37000
H299        H  0.48590976  0.35459294  0.99937731     0.43100
H300        H  0.36663838  0.45964958  0.50657828     0.39500
H301        H  0.10290598  0.05286216  0.49248796     0.44400
H302        H  0.04823307  0.35996841  0.49843869     0.43200
H303        H  0.39628425  0.43679640  0.97866118     0.43300
H304        H  0.45921477  0.13796632  0.50040464     0.43600
N305        N  0.49135413  0.24810613  0.80513686    -0.36500
N306        N  0.49084389  0.19347934  0.75623990    -0.57100
N307        N  0.49014415  0.24480248  0.70334216    -0.36500
N308        N  0.49370599  0.29889472  0.75209066    -0.57100
C309        C  0.49884740  0.21994675  0.82430292     0.27100
C310        C  0.50134619  0.27577267  0.82204545     0.27100
C311        C  0.49801743  0.21540594  0.68622490     0.27000
C312        C  0.49848722  0.27126809  0.68369908     0.27000
C313        C  0.48398516  0.17524274  0.78384889     0.35700
C314        C  0.48401244  0.17341857  0.72998433     0.35700
C315        C  0.48936194  0.32031101  0.77845100     0.35700
C316        C  0.48787179  0.31850442  0.72463215     0.35700
C317        C  0.51371275  0.22984413  0.85373812    -0.21800
C318        C  0.51523058  0.26509956  0.85233045    -0.21800
C319        C  0.51156100  0.22325963  0.65538245    -0.21800
C320        C  0.51160810  0.25857991  0.65369488    -0.21800
C321        C  0.47265553  0.14344804  0.77508294    -0.22900
C322        C  0.47279239  0.14225232  0.74091385    -0.22900
C323        C  0.48073081  0.35368326  0.76771601    -0.22900
C324        C  0.47970423  0.35252724  0.73359329    -0.22900
C325        C  0.49076708  0.18588799  0.81665562    -0.18200
C326        C  0.49616572  0.31059194  0.81178730    -0.18200
C327        C  0.49316239  0.30660945  0.69167299    -0.18200
C328        C  0.49015253  0.18206102  0.69643620    -0.18200
H329        H  0.52235493  0.21340616  0.87421886     0.14700
H330        H  0.52522501  0.28110101  0.87151807     0.14700
H331        H  0.51976450  0.20541373  0.63580705     0.14700
H332        H  0.52020022  0.27323146  0.63270453     0.14700
H333        H  0.46558530  0.12303012  0.79155816     0.13000
H334        H  0.46584951  0.12076048  0.72585739     0.13000
H335        H  0.47636068  0.37658683  0.78284650     0.13000
H336        H  0.47437916  0.37436618  0.71723552     0.13000
H337        H  0.47665665  0.24887128  0.78359902     0.26200
H338        H  0.47608210  0.24686718  0.72536270     0.26200
N339        N  0.24922603  0.49376486  0.80490100    -0.36500
N340        N  0.19634813  0.49301778  0.75453980    -0.57100
N341        N  0.24877406  0.49484907  0.70375261    -0.36500
N342        N  0.30175269  0.49273485  0.75414292    -0.57100
C343        C  0.22210130  0.48456788  0.82315317     0.27100
C344        C  0.27788024  0.48637275  0.82309026     0.27100
C345        C  0.22107771  0.48676712  0.68606028     0.27000
C346        C  0.27706021  0.48446302  0.68590934     0.27000
C347        C  0.17689578  0.50023806  0.78180158     0.35700
C348        C  0.17690168  0.50321682  0.72816751     0.35700
C349        C  0.32041453  0.50142518  0.78065007     0.35700
C350        C  0.32031477  0.49998107  0.72694422     0.35700
C351        C  0.23367255  0.47095028  0.85329588    -0.21800
C352        C  0.26895245  0.47220906  0.85329836    -0.21800
C353        C  0.23180985  0.47053918  0.65675503    -0.21800
C354        C  0.26728869  0.46912983  0.65663609    -0.21800
C355        C  0.14493857  0.51513378  0.77280335    -0.22900
C356        C  0.14502075  0.51724383  0.73870913    -0.22900
C357        C  0.35102288  0.51423681  0.77030625    -0.22900
C358        C  0.35090349  0.51345431  0.73615273    -0.22900
C359        C  0.18717800  0.49157982  0.81447076    -0.18200
C360        C  0.31137542  0.49465718  0.81388913    -0.18200
C361        C  0.31099261  0.49174685  0.69422731    -0.18200
C362        C  0.18663587  0.49650531  0.69486446    -0.18200
H363        H  0.21822535  0.46188032  0.87350508     0.14700
H364        H  0.28601880  0.46416856  0.87343231     0.14700
H365        H  0.21575291  0.46133737  0.63724277     0.14700
H366        H  0.28395989  0.45870198  0.63697614     0.14700
H367        H  0.12379332  0.52346919  0.78908539     0.13000
H368        H  0.12385817  0.52735573  0.72343018     0.13000
H369        H  0.37148285  0.52270808  0.78575096     0.13000
H370        H  0.37122393  0.52133431  0.71999125     0.13000
H371        H  0.24788985  0.50844517  0.78322823     0.26200
H372        H  0.24821317  0.51071172  0.72462471     0.26200
C373        C  0.13608948  0.51727353  0.61569084    -0.26200
C374        C  0.10837026  0.49623311  0.61935324    -0.14300
C375        C  0.10586922  0.47649289  0.64860581     0.36300
C376        C  0.13168340  0.47678764  0.67269003    -0.25700
C377        C  0.15955630  0.49741200  0.66882670    -0.14900
C378        C  0.16128088  0.51847317  0.64042054     0.37400
N379        N  0.18827237  0.54146507  0.63689973    -0.89200
H380        H  0.13793359  0.53329626  0.59376567     0.18500
H381        H  0.13004830  0.46058978  0.69452469     0.18500
N382        N  0.08535142  0.94501951  0.64655026    -0.88200
H383        H  0.17698514  0.56656338  0.63466915     0.35900
H384        H  0.20154802  0.53533924  0.61481384     0.41000
H385        H  0.06491050  0.46337837  0.67535583     0.40600
H386        H  0.08834794  0.43007096  0.65774436     0.35500
C387        C  0.10890014  0.47059645  0.86559682    -0.26200
C388        C  0.10950688  0.49517714  0.89106701    -0.14300
C389        C  0.13700368  0.02331802  0.89469949     0.36300
C390        C  0.16071372  0.02352283  0.86822064    -0.25700
C391        C  0.16050340  0.49187128  0.84102606    -0.14900
C392        C  0.13443992  0.46847567  0.84084303     0.37400
N393        N  0.13422892  0.44222760  0.81589260    -0.89200
H394        H  0.08905571  0.45239491  0.86542100     0.18500
H395        H  0.18137286  0.04081016  0.86918536     0.18500
N396        N  0.14092473  0.04529968  0.92278384    -0.88200
H397        H  0.11076357  0.44520379  0.80335111     0.35900
H398        H  0.13544217  0.41824885  0.82783233     0.41000
H399        H  0.14073902  0.07075839  0.91428284     0.40600
H400        H  0.16503690  0.03882633  0.93325009     0.35500
C401        C  0.33487567  0.03208073  0.64343840    -0.26200
C402        C  0.33746280  0.49196294  0.66753271    -0.14300
C403        C  0.36759835  0.46975170  0.66865101     0.36300
C404        C  0.39303108  0.47222387  0.64412253    -0.25700
C405        C  0.38834294  0.49594076  0.61790486    -0.14900
C406        C  0.35961036  0.03141461  0.61802641     0.37400
N407        N  0.35799673  0.05787295  0.59314297    -0.89200
H408        H  0.31413924  0.05216633  0.64356429     0.18500
H409        H  0.41606169  0.45492312  0.64507531     0.18500
N410        N  0.37217229  0.44444657  0.69446888    -0.88200
H411        H  0.35892269  0.08167869  0.60508527     0.35900
H412        H  0.33427170  0.05754917  0.58115650     0.41000
H413        H  0.37554702  0.42013682  0.68334205     0.40600
H414        H  0.39473654  0.44894062  0.70724360     0.35500
C415        C  0.33266698  0.03151830  0.86589813    -0.26200
C416        C  0.33814936  0.49559119  0.84007750    -0.14300
C417        C  0.36624895  0.47046605  0.84206148     0.36300
C418        C  0.39111915  0.47351166  0.86678426    -0.25700
C419        C  0.38775444  0.49982869  0.89065732    -0.14900
C420        C  0.35625256  0.02990500  0.89211644     0.37400
N421        N  0.35274173  0.05584453  0.91742423    -0.89200
H422        H  0.31229028  0.05197087  0.86546968     0.18500
H423        H  0.41259821  0.45427250  0.86816004     0.18500
N424        N  0.37009105  0.44126869  0.82005473    -0.88200
H425        H  0.37594084  0.06772366  0.91924102     0.35900
H426        H  0.34773336  0.04397916  0.94007822     0.41000
H427        H  0.34946594  0.44053684  0.80370384     0.40600
H428        H  0.36956754  0.41899792  0.83462547     0.35500
C429        C  0.46432248  0.13204564  0.62044307    -0.26200
C430        C  0.49038418  0.10535710  0.61943754    -0.14300
C431        C  0.02453992  0.11013894  0.63596473     0.36300
C432        C  0.02488741  0.13403744  0.66207710    -0.25700
C433        C  0.48907225  0.15498283  0.67046723    -0.14900
C434        C  0.46336214  0.15678449  0.64566996     0.37400
N435        N  0.43586661  0.18326918  0.64566915    -0.89200
H436        H  0.44456914  0.13363800  0.60150793     0.18500
H437        H  0.04888657  0.13802455  0.67455023     0.18500
N438        N  0.05582306  0.09150897  0.62575311    -0.88200
H439        H  0.44603312  0.20722420  0.64250239     0.35900
H440        H  0.42334147  0.18301797  0.66868964     0.41000
H441        H  0.06588891  0.07764176  0.64619640     0.40600
H442        H  0.07339414  0.10944065  0.61889519     0.35500
C443        C  0.47063124  0.13943055  0.89723332    -0.26200
C444        C  0.49424373  0.11052034  0.89569799    -0.14300
C445        C  0.02909099  0.10501353  0.86957636     0.36300
C446        C  0.02951922  0.12977566  0.84401686    -0.25700
C447        C  0.49134127  0.15989137  0.84406459    -0.14900
C448        C  0.46859255  0.16391997  0.87143012     0.37400
N449        N  0.44339674  0.19272607  0.87270799    -0.89200
H450        H  0.45299838  0.14230008  0.91812137     0.18500
H451        H  0.04781840  0.12621752  0.82373954     0.18500
N452        N  0.05310265  0.07519084  0.86917727    -0.88200
H453        H  0.42874991  0.19199980  0.89450909     0.35900
H454        H  0.42643967  0.19016735  0.85293938     0.41000
H455        H  0.06912653  0.07682260  0.88981159     0.40600
H456        H  0.06899154  0.07544332  0.84817140     0.35500
C457        C  0.03012866  0.37876551  0.63726964    -0.26200
C458        C  0.49798771  0.38170422  0.61319768    -0.14300
C459        C  0.47168222  0.35848029  0.61342603     0.36300
C460        C  0.47057137  0.33406702  0.63918657    -0.25700
C461        C  0.49543051  0.33232960  0.66438984    -0.14900
C462        C  0.03234613  0.35353169  0.66219828     0.37400
N463        N  0.06103102  0.35112807  0.68462022    -0.89200
H464        H  0.05027116  0.39626610  0.63451828     0.18500
H465        H  0.45012951  0.31651774  0.63986559     0.18500
N466        N  0.44592511  0.36023290  0.58787951    -0.88200
H467        H  0.07792732  0.37018589  0.67930683     0.35900
H468        H  0.07464967  0.32738046  0.68043542     0.41000
H469        H  0.43176456  0.38397842  0.59017559     0.40600
H470        H  0.42861449  0.34115095  0.59149675     0.35500
C471        C  0.47097062  0.34163927  0.86098260    -0.26200
C472        C  0.49772763  0.33806797  0.83750976    -0.14300
C473        C  0.03413760  0.36082165  0.84107255     0.36300
C474        C  0.03049619  0.38657199  0.86557218    -0.25700
C475        C  0.49783573  0.38896360  0.88770255    -0.14900
C476        C  0.47095320  0.36664216  0.88609015     0.37400
N477        N  0.44321372  0.36977700  0.90961446    -0.89200
H478        H  0.44997409  0.32476937  0.85983809     0.18500
H479        H  0.05000958  0.40497481  0.86782141     0.18500
N480        N  0.06329099  0.35922881  0.81917384    -0.88200
H481        H  0.44205668  0.34610233  0.92181303     0.35900
H482        H  0.42029065  0.37466092  0.89647932     0.41000
H483        H  0.08553411  0.35665866  0.83365820     0.40600
H484        H  0.06331937  0.38269448  0.80641282     0.35500
O485        O  0.99714977  0.89785046  0.44962089    -0.75200
O486        O  0.99884716  0.94068138  0.41095455    -0.54100
C487        C  0.99845575  0.90877752  0.41944702     0.78500
O488        O  0.40293670  0.49959726  0.06029161    -0.59800
O489        O  0.44569595  0.49633966  0.09897506    -0.52900
C490        C  0.40989312  0.99458202  0.09124495     0.70500
O491        O  0.40134681  0.50554086  0.44898202    -0.74400
O492        O  0.44431535  0.50223332  0.41011205    -0.54900
C493        C  0.41241113  0.50539985  0.41874750     0.76500
O494        O  0.99608742  0.89626440  0.05701121    -0.59500
O495        O  0.99678925  0.93767925  0.09711492    -0.52600
C496        C  0.49631129  0.90718180  0.08781442     0.73100
Zr497      Zr  0.99653828  0.92269876  0.50532320     2.54700
O498        O  0.45608129  0.88208804  0.49910424    -0.80100
O499        O  0.04977593  0.88202341  0.00057867    -0.93500
Zr500      Zr  0.42620085  0.49823344  0.50454152     2.64700
O501        O  0.38244553  0.95668221  0.50541860    -0.98500
O502        O  0.37245789  0.53269721  0.00688291    -0.80500
O503        O  0.46045961  0.96378299  0.47090848    -0.83900
O504        O  0.46065188  0.95772121  0.03572355    -2.18600
O505        O  0.09057065  0.99062799  0.06228572    -0.67300
O506        O  0.04755048  0.98864675  0.10075903    -0.51800
C507        C  0.07941445  0.98925365  0.09240398     0.71500
O508        O  0.49685389  0.59398350  0.45029480    -0.60200
O509        O  0.49958038  0.55189702  0.41062229    -0.52200
C510        C  0.99663521  0.58097725  0.41968404     0.73300
O511        O  0.49334928  0.59066251  0.06356372    -0.71600
O512        O  0.49883655  0.54615319  0.10068670    -0.50200
C513        C  0.49646397  0.57837208  0.09335085     0.74700
O514        O  0.09057705  0.99700390  0.44900575    -0.66900
O515        O  0.04846833  0.99329122  0.41023738    -0.54100
C516        C  0.08464496  0.50172716  0.41943354     0.73100
Zr517      Zr  0.06810126  0.99491587  0.00568059     2.77500
O518        O  0.10878942  0.54429286  0.50773490    -0.97700
O519        O  0.11004019  0.94353215  0.50425166    -0.80200
Zr520      Zr  0.49233275  0.56956610  0.00585841     2.70100
O521        O  0.03671578  0.61246855  0.01098152    -0.79700
O522        O  0.44795386  0.61446563  0.50642015    -0.98800
Zr523      Zr  0.00004350  0.49551147  0.44116418     2.21500
Zr524      Zr  0.49467528  0.99349160  0.06842111     2.11100
O525        O  0.03439470  0.52993297  0.03737431    -2.47500
O526        O  0.03207292  0.53287556  0.47392598    -0.79500
O527        O  0.03452123  0.95645748  0.03598142    -0.71700
O528        O  0.45970290  0.53563160  0.47332205    -2.32700
O529        O  0.03317607  0.95649484  0.47342743    -2.28900
O530        O  0.45857141  0.53259148  0.03718000    -0.73500
H531        H  0.44731058  0.94342163  0.04965760     0.78500
H532        H  0.44523732  0.55072588  0.45943760     0.79600
H533        H  0.04796823  0.54335431  0.05187393     0.81800
H534        H  0.04785835  0.94185567  0.45924251     0.79400
H535        H  0.38458424  0.56143103  0.50704395     0.42500
H536        H  0.42238143  0.59554224  0.01286805     0.41500
H537        H  0.02134530  0.63203888  0.49742191     0.41100
H538        H  0.13434460  0.52383665  0.99202984     0.39100
H539        H  0.13420422  0.96092344  0.01839683     0.42200
H540        H  0.06352458  0.88820063  0.50280214     0.37000
H541        H  0.43602796  0.89190395  0.51198521     0.43100
H542        H  0.38821134  0.93839233  0.97931668     0.39500
H543        H  0.10520615  0.55366866  0.98976243     0.44400
H544        H  0.06341162  0.88773161  0.02027425     0.43200
H545        H  0.38594486  0.94517195  0.52722438     0.43300
H546        H  0.44444172  0.62454086  0.02645456     0.43600
N547        N  0.49812692  0.74868982  0.30507992    -0.36500
N548        N  0.49970594  0.69331082  0.25622774    -0.57100
N549        N  0.49628850  0.74421351  0.20409117    -0.36500
N550        N  0.49771426  0.79929114  0.25282281    -0.57100
C551        C  0.50709648  0.72079034  0.32402098     0.27100
C552        C  0.50644400  0.77684533  0.32222169     0.27100
C553        C  0.50465165  0.71510084  0.18662737     0.27000
C554        C  0.50340637  0.77112559  0.18457859     0.27000
C555        C  0.49216118  0.67582302  0.28399367     0.35700
C556        C  0.49161599  0.67333156  0.23036236     0.35700
C557        C  0.49132374  0.82051243  0.27899750     0.35700
C558        C  0.48965532  0.81802007  0.22537227     0.35700
C559        C  0.52136382  0.73130157  0.35353370    -0.21800
C560        C  0.52081719  0.76675205  0.35244808    -0.21800
C561        C  0.51734768  0.72358043  0.15564954    -0.21800
C562        C  0.51646989  0.75901812  0.15431078    -0.21800
C563        C  0.47913732  0.64462186  0.27574448    -0.22900
C564        C  0.47890276  0.64300563  0.24164243    -0.22900
C565        C  0.47929059  0.85298553  0.26820836    -0.22900
C566        C  0.47807979  0.85137193  0.23411925    -0.22900
C567        C  0.49969083  0.68655299  0.31648271    -0.18200
C568        C  0.49899617  0.81140587  0.31219313    -0.18200
C569        C  0.49597302  0.80623342  0.19260511    -0.18200
C570        C  0.49765302  0.68150255  0.19683289    -0.18200
H571        H  0.53051696  0.71515499  0.37403186     0.14700
H572        H  0.52955679  0.78324469  0.37187762     0.14700
H573        H  0.52542107  0.70608659  0.13575131     0.14700
H574        H  0.52401724  0.77413531  0.13322112     0.14700
H575        H  0.47098511  0.62494594  0.29252888     0.13000
H576        H  0.47050508  0.62192954  0.22685931     0.13000
H577        H  0.47256452  0.87552775  0.28327441     0.13000
H578        H  0.47026425  0.87249043  0.21763261     0.13000
H579        H  0.48316598  0.74869957  0.28374431     0.26200
H580        H  0.48231219  0.74583416  0.22617854     0.26200
N581        N  0.24439785  0.99740231  0.30565555    -0.36500
N582        N  0.19220752  0.99735369  0.25437500    -0.57100
N583        N  0.24534381  0.99505862  0.20411799    -0.36500
N584        N  0.29790813  0.99163179  0.25538941    -0.57100
C585        C  0.21631301  0.99054050  0.32370410     0.27100
C586        C  0.27232667  0.98786761  0.32425140     0.27100
C587        C  0.21793218  0.98711101  0.18584874     0.27000
C588        C  0.27386920  0.98535510  0.18633282     0.27000
C589        C  0.17198312  0.00535748  0.28096397     0.35700
C590        C  0.17248636  0.00358126  0.22723171     0.35700
C591        C  0.31679830  0.99882736  0.28227343     0.35700
C592        C  0.31721249  0.99842425  0.22851054     0.35700
C593        C  0.22653448  0.97646566  0.35410337    -0.21800
C594        C  0.26193357  0.97490812  0.35448268    -0.21800
C595        C  0.22919965  0.97205493  0.15614940    -0.21800
C596        C  0.26457071  0.97105081  0.15641020    -0.21800
C597        C  0.13927986  0.01696630  0.27069054    -0.22900
C598        C  0.13958432  0.01578993  0.23657765    -0.22900
C599        C  0.34828736  0.01002572  0.27250808    -0.22900
C600        C  0.34849490  0.00994116  0.23835390    -0.22900
C601        C  0.18177911  0.99870995  0.31422103    -0.18200
C602        C  0.30672644  0.99298842  0.31541071    -0.18200
C603        C  0.30778307  0.99185280  0.19539163    -0.18200
C604        C  0.18311142  0.99537950  0.19443869    -0.18200
H605        H  0.21018562  0.96845575  0.37409528     0.14700
H606        H  0.27817203  0.96557045  0.37478610     0.14700
H607        H  0.21356085  0.96323140  0.13613248     0.14700
H608        H  0.28150203  0.96131410  0.13665252     0.14700
H609        H  0.11727390  0.02461131  0.28616575     0.13000
H610        H  0.11790066  0.02250875  0.22055361     0.13000
H611        H  0.36895364  0.01732988  0.28834021     0.13000
H612        H  0.36941103  0.01716279  0.22259233     0.13000
H613        H  0.24439734  0.01153190  0.28368070     0.26200
H614        H  0.24463842  0.01012301  0.22546132     0.26200
C615        C  0.13101796  0.01377139  0.11596599    -0.26200
C616        C  0.10541508  0.99022674  0.11898739    -0.14300
C617        C  0.10536303  0.96852786  0.14706067     0.36300
C618        C  0.13103378  0.97027157  0.17121499    -0.25700
C619        C  0.15645142  0.99396227  0.16820771    -0.14900
C620        C  0.15621642  0.01605760  0.14045499     0.37400
N621        N  0.18133037  0.04110771  0.13729911    -0.89200
H622        H  0.13111604  0.03096482  0.09473487     0.18500
H623        H  0.13115112  0.95305019  0.19244629     0.18500
N624        N  0.08330561  0.45376515  0.15246630    -0.88200
H625        H  0.16833055  0.06551201  0.13577405     0.35900
H626        H  0.19466568  0.03647070  0.11496267     0.41000
H627        H  0.06709067  0.94881730  0.17321491     0.40600
H628        H  0.09289607  0.91947245  0.15221723     0.35500
C629        C  0.10446833  0.97458263  0.36510199    -0.26200
C630        C  0.10554835  0.99751086  0.39192339    -0.14300
C631        C  0.13399693  0.53096161  0.39348715     0.36300
C632        C  0.15787645  0.53327010  0.36731684    -0.25700
C633        C  0.15459863  0.99858161  0.34029941    -0.14900
C634        C  0.12916818  0.97441842  0.33956135     0.37400
N635        N  0.12885137  0.94960358  0.31310656    -0.89200
H636        H  0.08490072  0.95607018  0.36461474     0.18500
H637        H  0.17631403  0.55290278  0.36800447     0.18500
N638        N  0.13351353  0.55488565  0.42074751    -0.88200
H639        H  0.10849543  0.93369094  0.31623897     0.35900
H640        H  0.15153135  0.93366857  0.31471308     0.41000
H641        H  0.10992846  0.56945357  0.42019501     0.40600
H642        H  0.15260718  0.57226950  0.41763370     0.35500
C643        C  0.33503366  0.52720278  0.14115154    -0.26200
C644        C  0.33435165  0.99208953  0.16878984    -0.14300
C645        C  0.36350363  0.96843919  0.16894236     0.36300
C646        C  0.38853247  0.97042576  0.14390800    -0.25700
C647        C  0.38403320  0.99448810  0.11798928    -0.14900
C648        C  0.35952180  0.52559527  0.11555295     0.37400
N649        N  0.35589322  0.54926363  0.08826008    -0.89200
H650        H  0.31327953  0.54610721  0.13981795     0.18500
H651        H  0.41106816  0.95243062  0.14398716     0.18500
N652        N  0.36722116  0.94227743  0.19421834    -0.88200
H653        H  0.35506855  0.57434162  0.09777219     0.35900
H654        H  0.33236441  0.54589370  0.07674045     0.41000
H655        H  0.34710193  0.92605239  0.19130954     0.40600
H656        H  0.39007338  0.92695525  0.19077435     0.35500
C657        C  0.33611044  0.53665096  0.36535800    -0.26200
C658        C  0.33317545  0.99273868  0.34210424    -0.14300
C659        C  0.35954908  0.96590278  0.34540197     0.36300
C660        C  0.38507088  0.96870079  0.36967509    -0.25700
C661        C  0.38381786  0.99658711  0.39189883    -0.14900
C662        C  0.35998988  0.53515402  0.39129391     0.37400
N663        N  0.35694366  0.56144366  0.41625656    -0.89200
H664        H  0.31575946  0.55713139  0.36508594     0.18500
H665        H  0.40544167  0.94837065  0.37187071     0.18500
N666        N  0.36100203  0.93538940  0.32507761    -0.88200
H667        H  0.38016766  0.57335968  0.41739134     0.35900
H668        H  0.35242921  0.54992528  0.43918740     0.41000
H669        H  0.34016014  0.93540693  0.30888109     0.40600
H670        H  0.35875442  0.91427354  0.34089075     0.35500
C671        C  0.47123477  0.63048561  0.12184241    -0.26200
C672        C  0.49674757  0.60326490  0.12107848    -0.14300
C673        C  0.01259597  0.59865729  0.15010546     0.36300
C674        C  0.00975258  0.62433200  0.17476767    -0.25700
C675        C  0.49646563  0.65400131  0.17123625    -0.14900
C676        C  0.47042042  0.65533210  0.14689975     0.37400
N677        N  0.44225125  0.68106041  0.14761306    -0.89200
H678        H  0.45138309  0.63215233  0.10300881     0.18500
H679        H  0.02709926  0.62274624  0.19578057     0.18500
N680        N  0.03755912  0.56980769  0.15333496    -0.88200
H681        H  0.45163948  0.70539894  0.14467921     0.35900
H682        H  0.43012918  0.68003794  0.17079765     0.41000
H683        H  0.05084405  0.57109333  0.17577335     0.40600
H684        H  0.05575240  0.57162605  0.13433783     0.35500
C685        C  0.47851307  0.63983321  0.39615766    -0.26200
C686        C  0.50059885  0.60990600  0.39374919    -0.14300
C687        C  0.02081005  0.60360840  0.36641736     0.36300
C688        C  0.02114099  0.62945683  0.34206250    -0.25700
C689        C  0.50018401  0.66064647  0.34372219    -0.14900
C690        C  0.47768898  0.66504100  0.37117235     0.37400
N691        N  0.45386871  0.69491592  0.37333103    -0.89200
H692        H  0.46108768  0.64304316  0.41716964     0.18500
H693        H  0.03953182  0.62673960  0.32177898     0.18500
N694        N  0.04469342  0.57394734  0.36416641    -0.88200
H695        H  0.43934335  0.69436520  0.39521550     0.35900
H696        H  0.43658963  0.69377351  0.35362354     0.41000
H697        H  0.06960620  0.58238649  0.36388120     0.40600
H698        H  0.04069590  0.56168842  0.34153105     0.35500
C699        C  0.01881285  0.88092553  0.13995177    -0.26200
C700        C  0.49584499  0.88085249  0.11398777    -0.14300
C701        C  0.47168292  0.85544343  0.11392474     0.36300
C702        C  0.47210112  0.83125927  0.13989417    -0.25700
C703        C  0.49636519  0.83201604  0.16549242    -0.14900
C704        C  0.02026030  0.85602177  0.16520041     0.37400
N705        N  0.04615588  0.85628791  0.19053726    -0.89200
H706        H  0.03658332  0.90092033  0.14010567     0.18500
H707        H  0.45339111  0.81186898  0.14038805     0.18500
N708        N  0.44656094  0.85470919  0.08791621    -0.88200
H709        H  0.06165154  0.87691501  0.18699848     0.35900
H710        H  0.06217389  0.83372427  0.18790080     0.41000
H711        H  0.43046420  0.87731266  0.08975005     0.40600
H712        H  0.43097186  0.83413718  0.09142846     0.35500
C713        C  0.47272158  0.84068276  0.36172061    -0.26200
C714        C  0.49908397  0.83901291  0.33778206    -0.14300
C715        C  0.02281462  0.86343887  0.33850569     0.36300
C716        C  0.02080538  0.88752075  0.36456960    -0.25700
C717        C  0.49722206  0.88938076  0.38831216    -0.14900
C718        C  0.47159597  0.86553654  0.38706680     0.37400
N719        N  0.44438457  0.86691255  0.41139704    -0.89200
H720        H  0.45300522  0.82235318  0.36061485     0.18500
H721        H  0.03638581  0.90955396  0.36333093     0.18500
N722        N  0.04622244  0.86764350  0.31148125    -0.88200
H723        H  0.42762216  0.84754217  0.40701373     0.35900
H724        H  0.43000931  0.89044742  0.40840643     0.41000
H725        H  0.07102150  0.86796993  0.32124498     0.40600
H726        H  0.04003261  0.89168516  0.30052428     0.35500
O727        O  0.99843452  0.90131624  0.94555683    -0.75200
O728        O  0.00225689  0.94503516  0.90801906    -0.54100
C729        C  0.00080758  0.91306348  0.91579503     0.78500
O730        O  0.40345087  0.49858094  0.56118386    -0.59800
O731        O  0.44627349  0.49431404  0.59981325    -0.52900
C732        C  0.41191962  0.00294051  0.59052856     0.70500
O733        O  0.40216712  0.50136918  0.94766362    -0.74400
O734        O  0.44542857  0.49811600  0.90912952    -0.54900
C735        C  0.41345202  0.50010060  0.91753429     0.76500
O736        O  0.99350145  0.89882386  0.56124937    -0.59500
O737        O  0.99554910  0.94158351  0.59991388    -0.52600
C738        C  0.49554927  0.91060438  0.58756113     0.73100
Zr739      Zr  0.99966356  0.92303641  0.00217076     2.54700
O740        O  0.46600615  0.87267531  0.99970333    -0.80100
O741        O  0.04225603  0.87670201  0.50803786    -0.93500
Zr742      Zr  0.42600565  0.49657347  0.00368672     2.64700
O743        O  0.38618839  0.94663097  0.00257179    -0.98500
O744        O  0.37558006  0.53832794  0.50930946    -0.80500
O745        O  0.46050891  0.95955050  0.97163709    -0.83900
O746        O  0.46029379  0.96213321  0.53511638    -2.18600
O747        O  0.09132344  0.99553491  0.56128150    -0.67300
O748        O  0.04889870  0.99200928  0.60020865    -0.51800
C749        C  0.08060592  0.99406308  0.59154893     0.71500
O750        O  0.49410781  0.59445095  0.94972343    -0.60200
O751        O  0.49745171  0.55219972  0.91029120    -0.52200
C752        C  0.00075335  0.58214251  0.92055303     0.73300
O753        O  0.49208567  0.59138736  0.56324877    -0.71600
O754        O  0.49695841  0.54704903  0.60065870    -0.50200
C755        C  0.49400237  0.57928173  0.59306480     0.74700
O756        O  0.09352589  0.00100417  0.95040391    -0.66900
O757        O  0.05170975  0.99840934  0.91109156    -0.54100
C758        C  0.08348578  0.49528000  0.91780516     0.73100
Zr759      Zr  0.06734894  0.99235376  0.50536640     2.77500
O760        O  0.11451037  0.53484345  0.00445468    -0.97700
O761        O  0.11838250  0.95430072  0.00068973    -0.80200
Zr762      Zr  0.49472596  0.56940134  0.50631210     2.70100
O763        O  0.03193861  0.61256598  0.51056642    -0.79700
O764        O  0.44151058  0.60981817  0.00675277    -0.98800
Zr765      Zr  0.99840811  0.49675099  0.94091819     2.21500
Zr766      Zr  0.49650061  0.99635788  0.56698817     2.11100
O767        O  0.03147627  0.53194645  0.53801485    -2.47500
O768        O  0.03362631  0.53152728  0.97334636    -0.79500
O769        O  0.03281293  0.95648752  0.53749964    -0.71700
O770        O  0.45863764  0.53479009  0.97239930    -2.32700
O771        O  0.03530233  0.95927034  0.97193061    -2.28900
O772        O  0.46008201  0.53323534  0.53766500    -0.73500
H773        H  0.44636188  0.94854219  0.54935311     0.78500
H774        H  0.44385673  0.54935497  0.95832127     0.79600
H775        H  0.04397149  0.54623381  0.55266812     0.81800
H776        H  0.05051539  0.94549120  0.95746421     0.79400
H777        H  0.37916727  0.55527634  0.01501887     0.42500
H778        H  0.43018596  0.60554942  0.49186788     0.41500
H779        H  0.04535677  0.61592448  0.98812858     0.41100
H780        H  0.10408986  0.55556325  0.52950353     0.39100
H781        H  0.11579338  0.93894860  0.52785577     0.42200
H782        H  0.04061225  0.85954731  0.00609068     0.37000
H783        H  0.44513730  0.88065684  0.98715710     0.43100
H784        H  0.39141660  0.93928075  0.48902726     0.39500
H785        H  0.13220044  0.53292452  0.50992450     0.44400
H786        H  0.03876196  0.86180302  0.48857335     0.43200
H787        H  0.39856597  0.92817554  0.01570347     0.43300
H788        H  0.43781345  0.61383524  0.52901076     0.43600
N789        N  0.49460750  0.74975078  0.80355088    -0.36500
N790        N  0.49448464  0.69493616  0.75493474    -0.57100
N791        N  0.49120380  0.74593163  0.70222763    -0.36500
N792        N  0.49389342  0.80041511  0.75090017    -0.57100
C793        C  0.50341613  0.72183130  0.82258965     0.27100
C794        C  0.50329178  0.77793551  0.82040826     0.27100
C795        C  0.49944038  0.71660464  0.68514435     0.27000
C796        C  0.49961495  0.77249851  0.68281789     0.27000
C797        C  0.48738174  0.67722291  0.78274046     0.35700
C798        C  0.48577086  0.67523007  0.72908726     0.35700
C799        C  0.48751796  0.82155794  0.77713933     0.35700
C800        C  0.48633645  0.81937428  0.72343864     0.35700
C801        C  0.51816873  0.73237042  0.85186138    -0.21800
C802        C  0.51794539  0.76784154  0.85054615    -0.21800
C803        C  0.51330411  0.72454720  0.65448960    -0.21800
C804        C  0.51334144  0.75995624  0.65298549    -0.21800
C805        C  0.47396359  0.64622151  0.77447446    -0.22900
C806        C  0.47313797  0.64488522  0.74040076    -0.22900
C807        C  0.47575349  0.85413119  0.76634344    -0.22900
C808        C  0.47502148  0.85275122  0.73221304    -0.22900
C809        C  0.49545431  0.68763461  0.81525229    -0.18200
C810        C  0.49564611  0.81251795  0.81031415    -0.18200
C811        C  0.49297365  0.80770536  0.69069865    -0.18200
C812        C  0.49164296  0.68332380  0.69550323    -0.18200
H813        H  0.52737002  0.71626561  0.87237289     0.14700
H814        H  0.52697554  0.78435439  0.86982151     0.14700
H815        H  0.52178634  0.70671856  0.63499622     0.14700
H816        H  0.52204583  0.77478176  0.63216181     0.14700
H817        H  0.46590726  0.62645826  0.79120190     0.13000
H818        H  0.46446438  0.62392256  0.72564108     0.13000
H819        H  0.46923088  0.87670091  0.78142748     0.13000
H820        H  0.46776033  0.87403411  0.71572457     0.13000
H821        H  0.47940476  0.74990136  0.78236735     0.26200
H822        H  0.47671984  0.74787207  0.72402069     0.26200
N823        N  0.24626220  0.00623398  0.80447389    -0.36500
N824        N  0.19435593  0.00095972  0.75352970    -0.57100
N825        N  0.24694023  0.00660594  0.70292176    -0.36500
N826        N  0.29889543  0.00913901  0.75428182    -0.57100
C827        C  0.21956124  0.99494114  0.82199648     0.27100
C828        C  0.27503848  0.99826392  0.82234925     0.27100
C829        C  0.22044489  0.99649460  0.68450003     0.27000
C830        C  0.27607841  0.99969123  0.68504215     0.27000
C831        C  0.17404046  0.00768584  0.78043035     0.35700
C832        C  0.17433485  0.00726859  0.72653829     0.35700
C833        C  0.31779371  0.01585363  0.78124992     0.35700
C834        C  0.31835226  0.01565541  0.72750397     0.35700
C835        C  0.23149418  0.97920486  0.85106382    -0.21800
C836        C  0.26659947  0.98134124  0.85130843    -0.21800
C837        C  0.23285349  0.98313158  0.65449499    -0.21800
C838        C  0.26799316  0.98515199  0.65482929    -0.21800
C839        C  0.14102542  0.01846558  0.77047727    -0.22900
C840        C  0.14116725  0.01801014  0.73629662    -0.22900
C841        C  0.34937252  0.02702058  0.77163123    -0.22900
C842        C  0.34974403  0.02687958  0.73746696    -0.22900
C843        C  0.18456631  0.00141193  0.81364113    -0.18200
C844        C  0.30829724  0.00787522  0.81406744    -0.18200
C845        C  0.30947536  0.00793588  0.69451725    -0.18200
C846        C  0.18523607  0.00125531  0.69335471    -0.18200
H847        H  0.21638702  0.96784719  0.87031172     0.14700
H848        H  0.28389583  0.97188469  0.87076150     0.14700
H849        H  0.21809529  0.97323166  0.63434643     0.14700
H850        H  0.28556450  0.97704127  0.63497756     0.14700
H851        H  0.11902212  0.02543809  0.78617706     0.13000
H852        H  0.11934192  0.02470626  0.72044797     0.13000
H853        H  0.37035995  0.03336468  0.78753233     0.13000
H854        H  0.37107585  0.03321010  0.72179440     0.13000
H855        H  0.24434345  0.02232465  0.78375484     0.26200
H856        H  0.24480895  0.02093169  0.72474981     0.26200
C857        C  0.13087625  0.02087800  0.61615573    -0.26200
C858        C  0.10693661  0.99549020  0.61798793    -0.14300
C859        C  0.10907991  0.97159956  0.64449386     0.36300
C860        C  0.13500528  0.97363218  0.66858165    -0.25700
C861        C  0.15862769  0.99929237  0.66690036    -0.14900
C862        C  0.15633394  0.02318509  0.64052122     0.37400
N863        N  0.17943170  0.05026308  0.63882886    -0.89200
H864        H  0.12939759  0.03946660  0.59600943     0.18500
H865        H  0.13687318  0.95514353  0.68879822     0.18500
N866        N  0.07782153  0.45516846  0.65363133    -0.88200
H867        H  0.16477694  0.07384213  0.63913147     0.35900
H868        H  0.19254495  0.04822713  0.61611219     0.41000
H869        H  0.09036954  0.92971879  0.66759075     0.40600
H870        H  0.08972308  0.92890288  0.62595210     0.35500
C871        C  0.10719698  0.97941418  0.86598770    -0.26200
C872        C  0.10941285  0.00163335  0.89325254    -0.14300
C873        C  0.13575537  0.51848155  0.89142537     0.36300
C874        C  0.16089947  0.51667174  0.86625672    -0.25700
C875        C  0.15832290  0.00129081  0.84088133    -0.14900
C876        C  0.13197805  0.97824735  0.84052999     0.37400
N877        N  0.13114559  0.95264954  0.81503884    -0.89200
H878        H  0.08683148  0.96179887  0.86507827     0.18500
H879        H  0.18086037  0.53477018  0.86614159     0.18500
N880        N  0.13664441  0.54399627  0.91720197    -0.88200
H881        H  0.10727460  0.95572007  0.80324485     0.35900
H882        H  0.13297295  0.92839171  0.82644205     0.41000
H883        H  0.11459903  0.56071215  0.91496749     0.40600
H884        H  0.15768077  0.55899966  0.91387829     0.35500
C885        C  0.33294630  0.51583648  0.64149213    -0.26200
C886        C  0.33673357  0.00708876  0.66863367    -0.14300
C887        C  0.36390323  0.98124003  0.66862340     0.36300
C888        C  0.38874916  0.98065445  0.64328154    -0.25700
C889        C  0.38643521  0.00521613  0.61763822    -0.14900
C890        C  0.35803085  0.51788022  0.61664217     0.37400
N891        N  0.35299215  0.54277417  0.59051150    -0.89200
H892        H  0.30997100  0.53321136  0.64066413     0.18500
H893        H  0.40938416  0.96044787  0.64316272     0.18500
N894        N  0.36584402  0.95523562  0.69395020    -0.88200
H895        H  0.34965479  0.56726127  0.60127548     0.35900
H896        H  0.33031968  0.53792939  0.57808164     0.41000
H897        H  0.36549300  0.93116202  0.68241740     0.40600
H898        H  0.38944217  0.95626489  0.70604959     0.35500
C899        C  0.33522835  0.52236035  0.86352636    -0.26200
C900        C  0.33482798  0.00673235  0.84052754    -0.14300
C901        C  0.36115651  0.98010760  0.84128888     0.36300
C902        C  0.38528580  0.97882030  0.86708350    -0.25700
C903        C  0.38302995  0.00333079  0.89269179    -0.14900
C904        C  0.35937139  0.52446787  0.88896474     0.37400
N905        N  0.35484148  0.55232227  0.91222014    -0.89200
H906        H  0.31380835  0.54165133  0.86214258     0.18500
H907        H  0.40546047  0.95816219  0.86747340     0.18500
N908        N  0.36296962  0.95399293  0.81615173    -0.88200
H909        H  0.37713052  0.56586069  0.91216849     0.35900
H910        H  0.35133543  0.54214082  0.93593326     0.41000
H911        H  0.36124323  0.93008940  0.82780092     0.40600
H912        H  0.38705638  0.95403334  0.80461359     0.35500
C913        C  0.46691539  0.63162126  0.62031679    -0.26200
C914        C  0.49267378  0.60454377  0.62043899    -0.14300
C915        C  0.01942070  0.60227935  0.64362888     0.36300
C916        C  0.02077088  0.62775637  0.66821970    -0.25700
C917        C  0.49078011  0.65564133  0.67017421    -0.14900
C918        C  0.46526285  0.65666347  0.64529161     0.37400
N919        N  0.43688212  0.68217785  0.64541528    -0.89200
H920        H  0.44761076  0.63297480  0.60095681     0.18500
H921        H  0.04193086  0.62637589  0.68567291     0.18500
N922        N  0.04629848  0.57525858  0.64156778    -0.88200
H923        H  0.44619776  0.70662341  0.64308183     0.35900
H924        H  0.42410473  0.68084704  0.66824564     0.41000
H925        H  0.04732587  0.56205545  0.66424481     0.40600
H926        H  0.06966184  0.58657050  0.63824607     0.35500
C927        C  0.47629965  0.64143834  0.89626475    -0.26200
C928        C  0.49659987  0.61035946  0.89269432    -0.14300
C929        C  0.02495731  0.60238884  0.86627965     0.36300
C930        C  0.02630118  0.62803195  0.84179494    -0.25700
C931        C  0.49588960  0.66147679  0.84250848    -0.14900
C932        C  0.47478863  0.66648990  0.87094771     0.37400
N933        N  0.45131631  0.69658638  0.87357134    -0.89200
H934        H  0.46045174  0.64555648  0.91829132     0.18500
H935        H  0.04328471  0.62380312  0.82056570     0.18500
N936        N  0.04545254  0.57035553  0.86280691    -0.88200
H937        H  0.43770673  0.69645165  0.89602547     0.35900
H938        H  0.43317321  0.69521875  0.85463240     0.41000
H939        H  0.06332060  0.56894061  0.88210596     0.40600
H940        H  0.05957569  0.56994698  0.84062372     0.35500
C941        C  0.01591334  0.88680967  0.64488711    -0.26200
C942        C  0.49436690  0.88426517  0.61372939    -0.14300
C943        C  0.46837617  0.86072712  0.61427925     0.36300
C944        C  0.46878682  0.83534940  0.63920886    -0.25700
C945        C  0.49433264  0.83362873  0.66370811    -0.14900
C946        C  0.01911688  0.86117245  0.66933615     0.37400
N947        N  0.04419636  0.86299862  0.69528104    -0.89200
H948        H  0.03198535  0.90833358  0.64597271     0.18500
H949        H  0.44879224  0.81730016  0.64003363     0.18500
N950        N  0.44125769  0.86333982  0.59010079    -0.88200
H951        H  0.05750283  0.88532938  0.69293657     0.35900
H952        H  0.06228058  0.84206684  0.69228089     0.41000
H953        H  0.42717581  0.88691964  0.59391669     0.40600
H954        H  0.42420493  0.84406986  0.59397606     0.35500
C955        C  0.47050650  0.84107212  0.86074215    -0.26200
C956        C  0.49596287  0.84016618  0.83589661    -0.14300
C957        C  0.03281525  0.86199469  0.84066499     0.36300
C958        C  0.02902002  0.88764441  0.86518024    -0.25700
C959        C  0.49587722  0.88894188  0.88784947    -0.14900
C960        C  0.47033061  0.86514976  0.88664544     0.37400
N961        N  0.44363949  0.86600865  0.91128761    -0.89200
H962        H  0.45077428  0.82272864  0.86012832     0.18500
H963        H  0.04750093  0.90723286  0.86634196     0.18500
N964        N  0.06110291  0.86309437  0.81766095    -0.88200
H965        H  0.44412303  0.84176832  0.92266075     0.35900
H966        H  0.42002319  0.87033507  0.89921575     0.41000
H967        H  0.06199850  0.84234757  0.80118254     0.40600
H968        H  0.08385536  0.86042566  0.83139118     0.35500
O969        O  0.49693561  0.40300009  0.44513552    -0.75200
O970        O  0.50006481  0.44666940  0.40750506    -0.54100
C971        C  0.49779944  0.41482606  0.41524823     0.78500
O972        O  0.89917521  0.99902075  0.05923884    -0.59800
O973        O  0.94130711  0.99186426  0.09840287    -0.52900
C974        C  0.91411450  0.49800578  0.09149908     0.70500
O975        O  0.89957459  0.99869376  0.44769316    -0.74400
O976        O  0.94300226  0.99624069  0.40933203    -0.54900
C977        C  0.91097217  0.99807769  0.41753532     0.76500
O978        O  0.50056411  0.39831703  0.05600138    -0.59500
O979        O  0.50030468  0.44013300  0.09586985    -0.52600
C980        C  0.00225843  0.40775206  0.08895749     0.73100
Zr981      Zr  0.50225202  0.42439787  0.50188044     2.54700
O982        O  0.96702649  0.37598111  0.50340854    -0.80100
O983        O  0.55674939  0.38798760  0.99776235    -0.93500
Zr984      Zr  0.92264808  0.99853064  0.50439464     2.64700
O985        O  0.89186261  0.44400351  0.50624152    -0.98500
O986        O  0.87808123  0.04318411  0.00207426    -0.80500
O987        O  0.96614529  0.45760413  0.47147159    -0.83900
O988        O  0.96364734  0.45875136  0.03606453    -2.18600
O989        O  0.59295648  0.50032151  0.06217084    -0.67300
O990        O  0.55046910  0.49333188  0.10013085    -0.51800
C991        C  0.58194905  0.49757665  0.09236817     0.71500
O992        O  0.99588069  0.09074704  0.44969459    -0.60200
O993        O  0.99711832  0.04781399  0.41086124    -0.52200
C994        C  0.49489437  0.08576957  0.41905038     0.73300
O995        O  0.98942380  0.08893709  0.06434458    -0.71600
O996        O  0.99447791  0.04440840  0.10156929    -0.50200
C997        C  0.99181623  0.07669112  0.09408277     0.74700
O998        O  0.59339146  0.50130352  0.44847929    -0.66900
O999        O  0.55110306  0.49896444  0.40967219    -0.54100
C1000       C  0.58147088  0.99799377  0.41801398     0.73100
Zr1001     Zr  0.57059658  0.49702565  0.00484650     2.77500
O1002       O  0.61814857  0.02907775  0.49919250    -0.97700
O1003       O  0.61174739  0.44538575  0.50360775    -0.80200
Zr1004     Zr  0.99156194  0.06771400  0.00713445     2.70100
O1005       O  0.51925900  0.12001945  0.00725090    -0.79700
O1006       O  0.94346519  0.10986776  0.50362289    -0.98800
Zr1007     Zr  0.49598511  0.99942004  0.43972500     2.21500
Zr1008     Zr  0.99965307  0.49304409  0.06834447     2.11100
O1009       O  0.52818789  0.03164728  0.03764090    -2.47500
O1010       O  0.53121779  0.03404636  0.47239769    -0.79500
O1011       O  0.53772855  0.45861551  0.03548335    -0.71700
O1012       O  0.95771304  0.03338981  0.47253301    -2.32700
O1013       O  0.53703402  0.46017929  0.47052943    -2.28900
O1014       O  0.95677065  0.03128935  0.03792922    -0.73500
H1015       H  0.94995540  0.44485783  0.05017249     0.78500
H1016       H  0.94364636  0.04804263  0.45792147     0.79600
H1017       H  0.54112713  0.04557741  0.05223207     0.81800
H1018       H  0.55168494  0.44644799  0.45554810     0.79400
H1019       H  0.87796912  0.05695552  0.52242673     0.42500
H1020       H  0.94221798  0.12277873  0.02378482     0.41500
H1021       H  0.54545573  0.11091366  0.53112162     0.41100
H1022       H  0.62950696  0.02801020  0.99596446     0.39100
H1023       H  0.61548670  0.44178214  0.02945752     0.42200
H1024       H  0.56109283  0.38456159  0.47706313     0.37000
H1025       H  0.94701413  0.38481514  0.51690362     0.43100
H1026       H  0.86887011  0.45884914  0.99159491     0.39500
H1027       H  0.60020521  0.05778133  0.99681598     0.44400
H1028       H  0.55613152  0.37247598  0.01726754     0.43200
H1029       H  0.90164129  0.42817221  0.48884862     0.43300
H1030       H  0.94501904  0.12294974  0.98497937     0.43600
N1031       N  0.99895910  0.24509652  0.30552192    -0.36500
N1032       N  0.99594312  0.19160011  0.25586406    -0.57100
N1033       N  0.99773726  0.24348689  0.20396383    -0.36500
N1034       N  0.00441706  0.29662676  0.25353302    -0.57100
C1035       C  0.00594845  0.21643965  0.32412314     0.27100
C1036       C  0.00959433  0.27216723  0.32287155     0.27100
C1037       C  0.00293675  0.21419738  0.18597066     0.27000
C1038       C  0.00730170  0.26982592  0.18475292     0.27000
C1039       C  0.98846348  0.17337576  0.28326284     0.35700
C1040       C  0.98733315  0.17257747  0.22949919     0.35700
C1041       C  0.99786892  0.31727851  0.28010958     0.35700
C1042       C  0.99792330  0.31648567  0.22639253     0.35700
C1043       C  0.02128271  0.22539573  0.35363799    -0.21800
C1044       C  0.02352175  0.26060808  0.35286845    -0.21800
C1045       C  0.01584248  0.22201175  0.15487801    -0.21800
C1046       C  0.01862379  0.25713851  0.15411761    -0.21800
C1047       C  0.97489165  0.14268068  0.27428363    -0.22900
C1048       C  0.97426989  0.14213803  0.24014674    -0.22900
C1049       C  0.98698897  0.35029226  0.26982378    -0.22900
C1050       C  0.98728106  0.34985888  0.23573972    -0.22900
C1051       C  0.99659581  0.18291050  0.31600580    -0.18200
C1052       C  0.00435693  0.30722584  0.31333420    -0.18200
C1053       C  0.00339206  0.30519834  0.19334657    -0.18200
C1054       C  0.99384876  0.18110648  0.19605794    -0.18200
H1055       H  0.02957223  0.20840271  0.37383071     0.14700
H1056       H  0.03385936  0.27600612  0.37234155     0.14700
H1057       H  0.02201979  0.20432226  0.13462264     0.14700
H1058       H  0.02746248  0.27172615  0.13319178     0.14700
H1059       H  0.96680382  0.12255458  0.29058539     0.13000
H1060       H  0.96565500  0.12151176  0.22489917     0.13000
H1061       H  0.98001106  0.37250483  0.28523816     0.13000
H1062       H  0.98048150  0.37163072  0.21970094     0.13000
H1063       H  0.98395884  0.24672190  0.28418334     0.26200
H1064       H  0.98447079  0.24589158  0.22640909     0.26200
N1065       N  0.74916591  0.50651291  0.30682997    -0.36500
N1066       N  0.69583417  0.50771566  0.25621124    -0.57100
N1067       N  0.74744246  0.50694266  0.20492314    -0.36500
N1068       N  0.80095144  0.50362783  0.25533521    -0.57100
C1069       C  0.72171250  0.49740259  0.32468067     0.27100
C1070       C  0.77776139  0.49637321  0.32422740     0.27100
C1071       C  0.71943722  0.49844139  0.18766415     0.27000
C1072       C  0.77563839  0.49554650  0.18726085     0.27000
C1073       C  0.67678089  0.51547213  0.28361275     0.35700
C1074       C  0.67546917  0.51571171  0.22982018     0.35700
C1075       C  0.82055644  0.51046903  0.28178176     0.35700
C1076       C  0.81985092  0.50975849  0.22806320     0.35700
C1077       C  0.73300418  0.48130801  0.35385763    -0.21800
C1078       C  0.76844029  0.48078315  0.35361594    -0.21800
C1079       C  0.72998937  0.48132573  0.15879232    -0.21800
C1080       C  0.76546149  0.47953976  0.15851391    -0.21800
C1081       C  0.64428197  0.52907242  0.27462888    -0.22900
C1082       C  0.64343346  0.52913892  0.24045748    -0.22900
C1083       C  0.85197409  0.52135261  0.27134937    -0.22900
C1084       C  0.85146048  0.52109340  0.23720294    -0.22900
C1085       C  0.68684259  0.50548796  0.31609903    -0.18200
C1086       C  0.81178735  0.50274018  0.31485390    -0.18200
C1087       C  0.81009655  0.50150392  0.19544414    -0.18200
C1088       C  0.68472340  0.50752053  0.19663823    -0.18200
H1089       H  0.71734818  0.47125671  0.37341819     0.14700
H1090       H  0.78540200  0.47021156  0.37287003     0.14700
H1091       H  0.71380300  0.47133160  0.13980714     0.14700
H1092       H  0.78190526  0.46795702  0.13923860     0.14700
H1093       H  0.62302243  0.53688521  0.29097774     0.13000
H1094       H  0.62150459  0.53725274  0.22524410     0.13000
H1095       H  0.87335389  0.52777259  0.28670546     0.13000
H1096       H  0.87236242  0.52746883  0.22101499     0.13000
H1097       H  0.74825960  0.52214932  0.28577756     0.26200
H1098       H  0.74731140  0.52305484  0.22561419     0.26200
C1099       C  0.63366662  0.52306035  0.11643658    -0.26200
C1100       C  0.60721991  0.50042177  0.11995430    -0.14300
C1101       C  0.60514900  0.48163141  0.14997766     0.36300
C1102       C  0.63030266  0.48438330  0.17474177    -0.25700
C1103       C  0.65717700  0.50641459  0.17072906    -0.14900
C1104       C  0.65804105  0.52666104  0.14169780     0.37400
N1105       N  0.68342854  0.55136464  0.13805216    -0.89200
H1106       H  0.63510034  0.53859886  0.09415079     0.18500
H1107       H  0.62903863  0.46891781  0.19710069     0.18500
N1108       N  0.57660582  0.95295596  0.15249533    -0.88200
H1109       H  0.67063322  0.57570061  0.13495765     0.35900
H1110       H  0.69754299  0.54544382  0.11640221     0.41000
H1111       H  0.56454477  0.46716740  0.17659684     0.40600
H1112       H  0.58934314  0.43426791  0.15965661     0.35500
C1113       C  0.60643761  0.48265060  0.36369632    -0.26200
C1114       C  0.60847881  0.50349547  0.39187248    -0.14300
C1115       C  0.63418102  0.02169116  0.39345456     0.36300
C1116       C  0.65872630  0.02207485  0.36797463    -0.25700
C1117       C  0.65975778  0.50335358  0.34217000    -0.14900
C1118       C  0.63202471  0.48163150  0.33913018     0.37400
N1119       N  0.62895944  0.45812736  0.31184065    -0.89200
H1120       H  0.58541276  0.46593040  0.36133405     0.18500
H1121       H  0.67891562  0.03985886  0.36944572     0.18500
N1122       N  0.63560677  0.04530017  0.42064255    -0.88200
H1123       H  0.62796755  0.43333454  0.32178241     0.35900
H1124       H  0.65072517  0.45693613  0.29663303     0.41000
H1125       H  0.63402700  0.07036211  0.41099072     0.40600
H1126       H  0.65953421  0.04096790  0.43213281     0.35500
C1127       C  0.83050060  0.02082189  0.14119700    -0.26200
C1128       C  0.83681843  0.49953103  0.16865802    -0.14300
C1129       C  0.86666717  0.47689780  0.17071465     0.36300
C1130       C  0.89203912  0.47739234  0.14581694    -0.25700
C1131       C  0.88774347  0.49947809  0.11825905    -0.14900
C1132       C  0.85530935  0.02114133  0.11591799     0.37400
N1133       N  0.85276640  0.04767946  0.09113122    -0.89200
H1134       H  0.80922803  0.04033405  0.14135351     0.18500
H1135       H  0.91478705  0.45979463  0.14762749     0.18500
N1136       N  0.87103971  0.45306998  0.19782172    -0.88200
H1137       H  0.85273902  0.07151884  0.10316588     0.35900
H1138       H  0.82916062  0.04649134  0.07907862     0.41000
H1139       H  0.87378648  0.42812222  0.18800905     0.40600
H1140       H  0.89390113  0.45778558  0.20999260     0.35500
C1141       C  0.83400498  0.02508394  0.36322297    -0.26200
C1142       C  0.83916073  0.50093548  0.34068844    -0.14300
C1143       C  0.86715635  0.47546957  0.34046982     0.36300
C1144       C  0.89186014  0.47556570  0.36571408    -0.25700
C1145       C  0.88905565  0.49981514  0.39147978    -0.14900
C1146       C  0.85814587  0.02537741  0.38886540     0.37400
N1147       N  0.85486648  0.05290116  0.41256095    -0.89200
H1148       H  0.81340603  0.04529441  0.36225342     0.18500
H1149       H  0.91300296  0.45589285  0.36567320     0.18500
N1150       N  0.87138830  0.44910314  0.31541827    -0.88200
H1151       H  0.87786841  0.06527375  0.41284719     0.35900
H1152       H  0.85073667  0.04248496  0.43605929     0.41000
H1153       H  0.85084099  0.45009783  0.29887171     0.40600
H1154       H  0.87111528  0.42521492  0.32736750     0.35500
C1155       C  0.96550740  0.12837946  0.12285891    -0.26200
C1156       C  0.99188482  0.10196563  0.12139054    -0.14300
C1157       C  0.51220021  0.10236252  0.14569359     0.36300
C1158       C  0.51180536  0.12855406  0.16986689    -0.25700
C1159       C  0.99244129  0.15365241  0.17046943    -0.14900
C1160       C  0.96536332  0.15396319  0.14726148     0.37400
N1161       N  0.93720667  0.17968594  0.14825012    -0.89200
H1162       H  0.94478423  0.12903195  0.10493407     0.18500
H1163       H  0.53145313  0.12769735  0.18888249     0.18500
N1164       N  0.53853770  0.07453348  0.14607368    -0.88200
H1165       H  0.94674453  0.20392071  0.14484375     0.35900
H1166       H  0.92571881  0.17904171  0.17175948     0.41000
H1167       H  0.55505242  0.07702485  0.16621045     0.40600
H1168       H  0.55346645  0.07652794  0.12458103     0.35500
C1169       C  0.97582709  0.13561365  0.39565300    -0.26200
C1170       C  0.99796783  0.10572212  0.39306478    -0.14300
C1171       C  0.51666176  0.10857292  0.36465811     0.36300
C1172       C  0.51522791  0.13425092  0.33996179    -0.25700
C1173       C  0.99658632  0.15632706  0.34276236    -0.14900
C1174       C  0.97461558  0.16079762  0.37061755     0.37400
N1175       N  0.95108919  0.19084412  0.37325414    -0.89200
H1176       H  0.95880088  0.13891727  0.41696437     0.18500
H1177       H  0.53221526  0.13151398  0.31858373     0.18500
N1178       N  0.54037123  0.07870290  0.36146800    -0.88200
H1179       H  0.93747934  0.19070413  0.39570382     0.35900
H1180       H  0.93299895  0.18950269  0.35426621     0.41000
H1181       H  0.55822899  0.07945078  0.38073021     0.40600
H1182       H  0.55429563  0.07961592  0.33923966     0.35500
C1183       C  0.52289524  0.38192741  0.13785248    -0.26200
C1184       C  0.00256200  0.38129013  0.11525107    -0.14300
C1185       C  0.97860670  0.35574791  0.11527977     0.36300
C1186       C  0.97943389  0.33122124  0.14097132    -0.25700
C1187       C  0.00399734  0.33148919  0.16636059    -0.14900
C1188       C  0.52246966  0.35741286  0.16334632     0.37400
N1189       N  0.54806554  0.35634410  0.18901779    -0.89200
H1190       H  0.54245370  0.40041261  0.13757814     0.18500
H1191       H  0.96068543  0.31187813  0.14140455     0.18500
N1192       N  0.95314322  0.35525353  0.08957643    -0.88200
H1193       H  0.56514762  0.37560941  0.18523564     0.35900
H1194       H  0.56251693  0.33273759  0.18703823     0.41000
H1195       H  0.93710516  0.37786612  0.09173018     0.40600
H1196       H  0.93756711  0.33468405  0.09312297     0.35500
C1197       C  0.98157690  0.33321662  0.36622844    -0.26200
C1198       C  0.00471560  0.33433797  0.33952446    -0.14300
C1199       C  0.51926531  0.36312491  0.33733646     0.36300
C1200       C  0.52073312  0.38745649  0.36300533    -0.25700
C1201       C  0.00372723  0.38462165  0.39029132    -0.14900
C1202       C  0.98109686  0.35784480  0.39164750     0.37400
N1203       N  0.95699900  0.35600996  0.41847488    -0.89200
H1204       H  0.96375122  0.31301209  0.36735291     0.18500
H1205       H  0.54226942  0.40365725  0.36407214     0.18500
N1206       N  0.54660882  0.35905739  0.31345355    -0.88200
H1207       H  0.96143499  0.33202723  0.43007588     0.35900
H1208       H  0.93222648  0.35720696  0.40844889     0.41000
H1209       H  0.56948740  0.35276458  0.32624784     0.40600
H1210       H  0.54882670  0.38278648  0.30163184     0.35500
O1211       O  0.49782896  0.40260411  0.94489640    -0.75200
O1212       O  0.50162951  0.44616815  0.90726782    -0.54100
C1213       C  0.49920812  0.41428295  0.91497978     0.78500
O1214       O  0.89846352  0.00154512  0.56045829    -0.59800
O1215       O  0.94120174  0.99606993  0.59929849    -0.52900
C1216       C  0.91290820  0.49146039  0.59034214     0.70500
O1217       O  0.90047552  0.99899664  0.94687425    -0.74400
O1218       O  0.94392934  0.99886005  0.90852202    -0.54900
C1219       C  0.91184985  0.99942397  0.91678734     0.76500
O1220       O  0.49756568  0.39851974  0.55680845    -0.59500
O1221       O  0.50236653  0.43966642  0.59671072    -0.52600
C1222       C  0.00235839  0.40734887  0.58887320     0.73100
Zr1223     Zr  0.50354174  0.42455655  0.00140519     2.54700
O1224       O  0.96082546  0.37764213  0.99949094    -0.80100
O1225       O  0.55546304  0.38765133  0.50093983    -0.93500
Zr1226     Zr  0.92368346  0.99705022  0.00326868     2.64700
O1227       O  0.88727517  0.45195512  0.00764027    -0.98500
O1228       O  0.87960401  0.04678478  0.49989276    -0.80500
O1229       O  0.96304732  0.46055174  0.97170163    -0.83900
O1230       O  0.96585734  0.45689816  0.53585863    -2.18600
O1231       O  0.59474492  0.49722619  0.55989282    -0.67300
O1232       O  0.55212631  0.49420356  0.59853696    -0.51800
C1233       C  0.58383403  0.49589325  0.59008964     0.71500
O1234       O  0.99910057  0.09337907  0.95216077    -0.60200
O1235       O  0.00049437  0.05187842  0.91190967    -0.52200
C1236       C  0.49365877  0.08399162  0.92193454     0.73300
O1237       O  0.99076234  0.09155150  0.56207292    -0.71600
O1238       O  0.99471156  0.04796232  0.60039450    -0.50200
C1239       C  0.99270207  0.07999936  0.59212101     0.74700
O1240       O  0.59414621  0.50146366  0.94848199    -0.66900
O1241       O  0.55185021  0.49850891  0.90960395    -0.54100
C1242       C  0.57892830  0.00102491  0.91866098     0.73100
Zr1243     Zr  0.57038567  0.49524090  0.50418339     2.77500
O1244       O  0.60981721  0.03756447  0.00953268    -0.97700
O1245       O  0.61332756  0.44827643  0.00571594    -0.80200
Zr1246     Zr  0.99241717  0.06739509  0.50572190     2.70100
O1247       O  0.53649812  0.11275013  0.50815364    -0.79700
O1248       O  0.94070645  0.10772768  0.00408686    -0.98800
Zr1249     Zr  0.49460921  0.99743150  0.94139777     2.21500
Zr1250     Zr  0.99829645  0.49357614  0.56877830     2.11100
O1251       O  0.53139330  0.03321576  0.53610212    -2.47500
O1252       O  0.52811879  0.03322487  0.97437400    -0.79500
O1253       O  0.53720700  0.45783375  0.53558088    -0.71700
O1254       O  0.95787746  0.03416762  0.97250118    -2.32700
O1255       O  0.53803250  0.46125139  0.97086783    -2.28900
O1256       O  0.95689033  0.03306024  0.53783046    -0.73500
H1257       H  0.95266937  0.44232760  0.54962946     0.78500
H1258       H  0.94364878  0.04915151  0.95823240     0.79600
H1259       H  0.54467732  0.04701737  0.55057600     0.81800
H1260       H  0.55303075  0.44761087  0.95610789     0.79400
H1261       H  0.85867594  0.03393576  0.01440455     0.42500
H1262       H  0.93681893  0.11125587  0.47991597     0.41500
H1263       H  0.53667241  0.11621160  0.02495982     0.41100
H1264       H  0.61602530  0.04575028  0.51778249     0.39100
H1265       H  0.63172578  0.45322096  0.49110648     0.42200
H1266       H  0.55355269  0.37281491  0.97843653     0.37000
H1267       H  0.94449870  0.38266780  0.01805646     0.43100
H1268       H  0.86930544  0.45288622  0.49735086     0.39500
H1269       H  0.63794061  0.01290684  0.50516023     0.44400
H1270       H  0.54867276  0.36476352  0.50833017     0.43200
H1271       H  0.90012265  0.43192017  0.99714440     0.43300
H1272       H  0.92452799  0.09836552  0.51455611     0.43600
N1273       N  0.00801115  0.24671893  0.80490046    -0.36500
N1274       N  0.00231317  0.19215887  0.75632096    -0.57100
N1275       N  0.00021700  0.24352139  0.70409852    -0.36500
N1276       N  0.00945280  0.29767647  0.75274089    -0.57100
C1277       C  0.01557448  0.21846338  0.82389669     0.27100
C1278       C  0.01729089  0.27442327  0.82221002     0.27100
C1279       C  0.00569797  0.21398919  0.68647969     0.27000
C1280       C  0.00995768  0.26951354  0.68456778     0.27000
C1281       C  0.99728698  0.17404824  0.78438524     0.35700
C1282       C  0.99243917  0.17261843  0.73078248     0.35700
C1283       C  0.00563787  0.31922917  0.77900066     0.35700
C1284       C  0.00300986  0.31722851  0.72544514     0.35700
C1285       C  0.03017496  0.22836313  0.85349222    -0.21800
C1286       C  0.03099857  0.26372413  0.85251704    -0.21800
C1287       C  0.01896162  0.22134696  0.65542847    -0.21800
C1288       C  0.02174018  0.25642257  0.65426780    -0.21800
C1289       C  0.98409567  0.14278174  0.77663096    -0.22900
C1290       C  0.98113639  0.14184034  0.74258135    -0.22900
C1291       C  0.99720392  0.35267529  0.76832836    -0.22900
C1292       C  0.99556794  0.35141334  0.73433039    -0.22900
C1293       C  0.00658386  0.18455693  0.81657958    -0.18200
C1294       C  0.01126544  0.30925772  0.81234417    -0.18200
C1295       C  0.00622763  0.30494692  0.69255507    -0.18200
C1296       C  0.99692348  0.18099216  0.69698698    -0.18200
H1297       H  0.03851647  0.21190704  0.87405977     0.14700
H1298       H  0.04024229  0.27979825  0.87203910     0.14700
H1299       H  0.02574232  0.20337506  0.63555741     0.14700
H1300       H  0.03110621  0.27073099  0.63339091     0.14700
H1301       H  0.97772228  0.12256489  0.79365299     0.13000
H1302       H  0.97228635  0.12072647  0.72813965     0.13000
H1303       H  0.99290920  0.37564054  0.78338418     0.13000
H1304       H  0.98980187  0.37322053  0.71803845     0.13000
H1305       H  0.99313372  0.24759256  0.78351339     0.26200
H1306       H  0.98679841  0.24630745  0.72647051     0.26200
N1307       N  0.74745696  0.50438024  0.80516482    -0.36500
N1308       N  0.69537085  0.50099921  0.75367609    -0.57100
N1309       N  0.74869523  0.49559636  0.70422509    -0.36500
N1310       N  0.80085446  0.49645668  0.75531459    -0.57100
C1311       C  0.71949865  0.49657953  0.82297636     0.27100
C1312       C  0.77544724  0.49567762  0.82398250     0.27100
C1313       C  0.72105066  0.48681382  0.68672070     0.27000
C1314       C  0.77707611  0.48265951  0.68785342     0.27000
C1315       C  0.67567434  0.51108860  0.78001823     0.35700
C1316       C  0.67634000  0.50850949  0.72633038     0.35700
C1317       C  0.81976425  0.50537458  0.78159513     0.35700
C1318       C  0.82057777  0.49998496  0.72801161     0.35700
C1319       C  0.72983619  0.48288501  0.85347466    -0.21800
C1320       C  0.76519353  0.48246703  0.85416026    -0.21800
C1321       C  0.73192707  0.46757888  0.65916508    -0.21800
C1322       C  0.76737602  0.46497881  0.65986498    -0.21800
C1323       C  0.64401146  0.52540277  0.76947949    -0.22900
C1324       C  0.64447964  0.52391650  0.73531244    -0.22900
C1325       C  0.85166143  0.51482571  0.77102814    -0.22900
C1326       C  0.85208471  0.51170486  0.73695023    -0.22900
C1327       C  0.68493133  0.50392678  0.81324566    -0.18200
C1328       C  0.80981029  0.50086836  0.81498998    -0.18200
C1329       C  0.81121633  0.48978811  0.69575626    -0.18200
C1330       C  0.68659540  0.49834276  0.69390198    -0.18200
H1331       H  0.71357348  0.47435561  0.87330491     0.14700
H1332       H  0.78149795  0.47343067  0.87452373     0.14700
H1333       H  0.71600338  0.45713727  0.64020274     0.14700
H1334       H  0.78414200  0.45222005  0.64147917     0.14700
H1335       H  0.62263413  0.53514395  0.78484592     0.13000
H1336       H  0.62353420  0.53248077  0.71905489     0.13000
H1337       H  0.87264509  0.52236797  0.78633206     0.13000
H1338       H  0.87347056  0.51661431  0.72077503     0.13000
H1339       H  0.74723020  0.51821979  0.78297599     0.26200
H1340       H  0.74828837  0.51338433  0.72357340     0.26200
C1341       C  0.63906282  0.51513274  0.61220072    -0.26200
C1342       C  0.60970879  0.49655970  0.61690508    -0.14300
C1343       C  0.60567095  0.47878679  0.64712215     0.36300
C1344       C  0.63102946  0.47942062  0.67168460    -0.25700
C1345       C  0.66024738  0.49812085  0.66708239    -0.14900
C1346       C  0.66402886  0.51640415  0.63713965     0.37400
N1347       N  0.69291843  0.53676734  0.63224037    -0.89200
H1348       H  0.64237761  0.52928483  0.58930215     0.18500
H1349       H  0.62793283  0.46508553  0.69450578     0.18500
N1350       N  0.58513841  0.94970124  0.64397614    -0.88200
H1351       H  0.68361488  0.56224462  0.62783853     0.35900
H1352       H  0.70612310  0.52775013  0.61094801     0.41000
H1353       H  0.56345233  0.46902400  0.67383455     0.40600
H1354       H  0.58526428  0.43374613  0.65769789     0.35500
C1355       C  0.60893118  0.47793666  0.86521370    -0.26200
C1356       C  0.60905164  0.50192282  0.89128302    -0.14300
C1357       C  0.63016227  0.02707219  0.89302243     0.36300
C1358       C  0.65456359  0.02793439  0.86731185    -0.25700
C1359       C  0.65754872  0.50355451  0.83909459    -0.14900
C1360       C  0.63341570  0.47795670  0.83962637     0.37400
N1361       N  0.63425533  0.45078496  0.81551259    -0.89200
H1362       H  0.59042876  0.45832907  0.86536059     0.18500
H1363       H  0.67414250  0.04639896  0.86847819     0.18500
N1364       N  0.63094681  0.05099352  0.92001627    -0.88200
H1365       H  0.65878329  0.43802998  0.81564965     0.35900
H1366       H  0.62975409  0.46145250  0.79198624     0.41000
H1367       H  0.62862440  0.07596430  0.91018447     0.40600
H1368       H  0.65496402  0.04743700  0.93148000     0.35500
C1369       C  0.83244396  0.02551535  0.64471938    -0.26200
C1370       C  0.83731016  0.48849173  0.66848124    -0.14300
C1371       C  0.86798937  0.46705712  0.66998875     0.36300
C1372       C  0.89260957  0.46851500  0.64445149    -0.25700
C1373       C  0.88651021  0.49017448  0.61677199    -0.14900
C1374       C  0.85700555  0.02606074  0.61920822     0.37400
N1375       N  0.85561681  0.05399743  0.59588143    -0.89200
H1376       H  0.81244150  0.04625696  0.64649418     0.18500
H1377       H  0.91630422  0.45225031  0.64599140     0.18500
N1378       N  0.87396388  0.44354415  0.69714003    -0.88200
H1379       H  0.85705597  0.07698114  0.60913534     0.35900
H1380       H  0.83173471  0.05480882  0.58405489     0.41000
H1381       H  0.87732630  0.41858588  0.68742315     0.40600
H1382       H  0.89692272  0.44916673  0.70864787     0.35500
C1383       C  0.83594040  0.02891597  0.86211291    -0.26200
C1384       C  0.83658994  0.49946675  0.84144970    -0.14300
C1385       C  0.86111464  0.47097279  0.84512700     0.36300
C1386       C  0.88593138  0.47156528  0.87035429    -0.25700
C1387       C  0.88613121  0.49919983  0.89276712    -0.14900
C1388       C  0.86145383  0.02924063  0.88656743     0.37400
N1389       N  0.86259347  0.05921810  0.90710949    -0.89200
H1390       H  0.81776151  0.05113257  0.85938571     0.18500
H1391       H  0.90478122  0.44986840  0.87292491     0.18500
N1392       N  0.86144929  0.44095906  0.82417510    -0.88200
H1393       H  0.88688443  0.06883084  0.90453109     0.35900
H1394       H  0.85928029  0.05195926  0.93186308     0.41000
H1395       H  0.84174072  0.44283471  0.80669395     0.40600
H1396       H  0.85661138  0.41991836  0.83932022     0.35500
C1397       C  0.96340656  0.12464598  0.62867693    -0.26200
C1398       C  0.99359538  0.10533272  0.61922830    -0.14300
C1399       C  0.51598646  0.10340207  0.64411477     0.36300
C1400       C  0.51512969  0.12819923  0.66946995    -0.25700
C1401       C  0.99479989  0.15362708  0.67139217    -0.14900
C1402       C  0.96375440  0.14876439  0.65455136     0.37400
N1403       N  0.93239823  0.16816966  0.66315978    -0.89200
H1404       H  0.93951641  0.12096330  0.61588033     0.18500
H1405       H  0.53523329  0.12698816  0.68805001     0.18500
N1406       N  0.54361275  0.07709218  0.64265532    -0.88200
H1407       H  0.93616856  0.19439484  0.66031100     0.35900
H1408       H  0.92700373  0.16356086  0.68818534     0.41000
H1409       H  0.54377611  0.06318641  0.66492488     0.40600
H1410       H  0.56676484  0.08909749  0.64090783     0.35500
C1411       C  0.98275277  0.13977419  0.89661664    -0.26200
C1412       C  0.00501670  0.10985994  0.89583106    -0.14300
C1413       C  0.51724659  0.10665216  0.86857936     0.36300
C1414       C  0.51559641  0.13144156  0.84304986    -0.25700
C1415       C  0.00631358  0.15908144  0.84428322    -0.14900
C1416       C  0.98281888  0.16402490  0.87080669     0.37400
N1417       N  0.95827174  0.19321243  0.87099892    -0.89200
H1418       H  0.96420447  0.14363827  0.91665607     0.18500
H1419       H  0.53336918  0.12871701  0.82227833     0.18500
N1420       N  0.54241669  0.07779750  0.86732479    -0.88200
H1421       H  0.96173985  0.20719317  0.89276632     0.35900
H1422       H  0.93364288  0.18410930  0.87173867     0.41000
H1423       H  0.55914051  0.08009482  0.88733917     0.40600
H1424       H  0.55736121  0.07868895  0.84573648     0.35500
C1425       C  0.52321038  0.37941986  0.63795677    -0.26200
C1426       C  0.00274440  0.38090587  0.61490757    -0.14300
C1427       C  0.97686490  0.35739189  0.61714682     0.36300
C1428       C  0.97876156  0.33232866  0.64240298    -0.25700
C1429       C  0.00608684  0.33050164  0.66509885    -0.14900
C1430       C  0.52262754  0.35443286  0.66317426     0.37400
N1431       N  0.54962595  0.35111277  0.68743143    -0.89200
H1432       H  0.54381756  0.39668691  0.63710323     0.18500
H1433       H  0.95871309  0.31446524  0.64476960     0.18500
N1434       N  0.94872968  0.35934857  0.59407235    -0.88200
H1435       H  0.56775943  0.36923877  0.68302207     0.35900
H1436       H  0.56246383  0.32679080  0.68430689     0.41000
H1437       H  0.93468049  0.38294093  0.59787386     0.40600
H1438       H  0.93199546  0.34005039  0.59909261     0.35500
C1439       C  0.98082002  0.33835511  0.86009871    -0.26200
C1440       C  0.00919375  0.33639068  0.83844791    -0.14300
C1441       C  0.52513541  0.36025634  0.83931102     0.36300
C1442       C  0.52435069  0.38596519  0.86393663    -0.25700
C1443       C  0.00260464  0.38782796  0.88786908    -0.14900
C1444       C  0.97733546  0.36389004  0.88470863     0.37400
N1445       N  0.94775110  0.36594573  0.90604710    -0.89200
H1446       H  0.96118537  0.32006872  0.85771430     0.18500
H1447       H  0.54530881  0.40286718  0.86529862     0.18500
N1448       N  0.55433489  0.35710212  0.81722743    -0.88200
H1449       H  0.94690411  0.34239511  0.91852990     0.35900
H1450       H  0.92584501  0.36926051  0.89115175     0.41000
H1451       H  0.55294260  0.33646659  0.80085002     0.40600
H1452       H  0.57619292  0.35134726  0.83172932     0.35500
O1453       O  0.49616896  0.90332858  0.44538995    -0.75200
O1454       O  0.49915045  0.94675609  0.40735448    -0.54100
C1455       C  0.49757608  0.91486166  0.41540608     0.78500
O1456       O  0.90319658  0.50074091  0.06140227    -0.59800
O1457       O  0.94603689  0.49382412  0.09981468    -0.52900
C1458       C  0.90965088  0.99569997  0.08944764     0.70500
O1459       O  0.90333575  0.49614395  0.44840956    -0.74400
O1460       O  0.94669326  0.49674196  0.41001213    -0.54900
C1461       C  0.91471333  0.49748140  0.41837167     0.76500
O1462       O  0.49578085  0.89691950  0.05743403    -0.59500
O1463       O  0.49745476  0.93869730  0.09722913    -0.52600
C1464       C  0.99603043  0.90620563  0.08752236     0.73100
Zr1465     Zr  0.49793691  0.92571152  0.50205075     2.54700
O1466       O  0.95051320  0.88331827  0.50422896    -0.80100
O1467       O  0.55365828  0.88704378  0.00213317    -0.93500
Zr1468     Zr  0.92732235  0.49318239  0.50431527     2.64700
O1469       O  0.87847899  0.95723755  0.50802672    -0.98500
O1470       O  0.88077521  0.54368938  0.00482868    -0.80500
O1471       O  0.95910008  0.95954249  0.47259322    -0.83900
O1472       O  0.96034488  0.95812596  0.03464692    -2.18600
O1473       O  0.59014032  0.99530406  0.06150853    -0.67300
O1474       O  0.54739452  0.99258152  0.10017614    -0.51800
C1475       C  0.57912292  0.99416341  0.09175252     0.71500
O1476       O  0.99434783  0.59170045  0.45002541    -0.60200
O1477       O  0.99833327  0.54917037  0.41073100    -0.52200
C1478       C  0.49906673  0.58350575  0.41990919     0.73300
O1479       O  0.99289396  0.58909630  0.06425611    -0.71600
O1480       O  0.99750295  0.54474639  0.10162580    -0.50200
C1481       C  0.99425509  0.57693877  0.09414660     0.74700
O1482       O  0.59210999  0.99850095  0.44819622    -0.66900
O1483       O  0.54987809  0.99686318  0.40920224    -0.54100
C1484       C  0.58256179  0.50128231  0.41835463     0.73100
Zr1485     Zr  0.56659157  0.99548093  0.00507422     2.77500
O1486       O  0.61648094  0.53451921  0.50236461    -0.97700
O1487       O  0.60589905  0.94256322  0.50609586    -0.80200
Zr1488     Zr  0.99595309  0.56775731  0.00679297     2.70100
O1489       O  0.52914380  0.61767261  0.00607356    -0.79700
O1490       O  0.94093006  0.60703018  0.50220396    -0.98800
Zr1491     Zr  0.49796447  0.49855511  0.44079906     2.21500
Zr1492     Zr  0.99509641  0.99235166  0.06823409     2.11100
O1493       O  0.53191173  0.53315906  0.03675111    -2.47500
O1494       O  0.53270312  0.53350413  0.47330801    -0.79500
O1495       O  0.53397029  0.95732213  0.03634872    -0.71700
O1496       O  0.95993815  0.53106887  0.47303245    -2.32700
O1497       O  0.53373857  0.96062454  0.47063932    -2.28900
O1498       O  0.96130570  0.53198063  0.03835865    -0.73500
H1499       H  0.94642427  0.94388532  0.04812299     0.78500
H1500       H  0.94497438  0.54531990  0.45877961     0.79600
H1501       H  0.54494280  0.54706752  0.05128065     0.81800
H1502       H  0.54831597  0.94631179  0.45605149     0.79400
H1503       H  0.85858276  0.52326183  0.50670144     0.42500
H1504       H  0.94407060  0.61801153  0.98425682     0.41500
H1505       H  0.54936531  0.61083302  0.48691415     0.41100
H1506       H  0.60516813  0.55766625  0.01916944     0.39100
H1507       H  0.61121255  0.93685131  0.02221312     0.42200
H1508       H  0.56035746  0.88904236  0.52197162     0.37000
H1509       H  0.93588362  0.88972930  0.52374069     0.43100
H1510       H  0.86136553  0.96418310  0.01497358     0.39500
H1511       H  0.63380762  0.52727551  0.01928264     0.44400
H1512       H  0.55109227  0.87011654  0.02023939     0.43200
H1513       H  0.87895107  0.94562441  0.48613780     0.43300
H1514       H  0.92685977  0.59663185  0.01198174     0.43600
N1515       N  0.99934644  0.74624416  0.30471873    -0.36500
N1516       N  0.99199671  0.69232749  0.25622786    -0.57100
N1517       N  0.98957708  0.74338730  0.20412737    -0.36500
N1518       N  0.99979731  0.79740091  0.25288630    -0.57100
C1519       C  0.00762207  0.71775471  0.32314140     0.27100
C1520       C  0.01055297  0.77351065  0.32132156     0.27100
C1521       C  0.99502109  0.71380996  0.18657611     0.27000
C1522       C  0.99959083  0.76931764  0.18470097     0.27000
C1523       C  0.98661461  0.67450411  0.28435281     0.35700
C1524       C  0.98100480  0.67313069  0.23096974     0.35700
C1525       C  0.99498334  0.81845544  0.27947546     0.35700
C1526       C  0.99130000  0.81662229  0.22579790     0.35700
C1527       C  0.02462417  0.72693051  0.35164701    -0.21800
C1528       C  0.02657709  0.76217328  0.35045071    -0.21800
C1529       C  0.00880412  0.72101862  0.15569965    -0.21800
C1530       C  0.01159634  0.75610118  0.15447767    -0.21800
C1531       C  0.97202382  0.64388513  0.27698368    -0.22900
C1532       C  0.96845296  0.64302600  0.24305349    -0.22900
C1533       C  0.98320793  0.85124057  0.26922878    -0.22900
C1534       C  0.98108831  0.85013396  0.23514601    -0.22900
C1535       C  0.99733178  0.68434444  0.31616613    -0.18200
C1536       C  0.00316194  0.80849636  0.31249523    -0.18200
C1537       C  0.99554481  0.80477619  0.19273697    -0.18200
C1538       C  0.98586507  0.68091523  0.19712652    -0.18200
H1539       H  0.03390996  0.71009134  0.37159204     0.14700
H1540       H  0.03768188  0.77780341  0.36930309     0.14700
H1541       H  0.01562508  0.70295806  0.13590247     0.14700
H1542       H  0.02105820  0.77029102  0.13356801     0.14700
H1543       H  0.96521832  0.62399516  0.29418521     0.13000
H1544       H  0.95847616  0.62232360  0.22884651     0.13000
H1545       H  0.97711586  0.87369582  0.28458117     0.13000
H1546       H  0.97319291  0.87158401  0.21908330     0.13000
H1547       H  0.98271640  0.74762192  0.28453284     0.26200
H1548       H  0.97609238  0.74628645  0.22646741     0.26200
N1549       N  0.74615065  0.00223740  0.30457824    -0.36500
N1550       N  0.69275775  0.00182516  0.25428837    -0.57100
N1551       N  0.74457335  0.00114630  0.20320719    -0.36500
N1552       N  0.79804422  0.99949952  0.25338902    -0.57100
C1553       C  0.71881229  0.99336249  0.32269296     0.27100
C1554       C  0.77476573  0.99309481  0.32232821     0.27100
C1555       C  0.71676985  0.99287281  0.18566007     0.27000
C1556       C  0.77276567  0.99106947  0.18506382     0.27000
C1557       C  0.67359079  0.00990041  0.28150822     0.35700
C1558       C  0.67258291  0.00973863  0.22780027     0.35700
C1559       C  0.81760736  0.00675819  0.27975181     0.35700
C1560       C  0.81694846  0.00526479  0.22603108     0.35700
C1561       C  0.73019042  0.97827012  0.35230154    -0.21800
C1562       C  0.76556620  0.97823619  0.35211536    -0.21800
C1563       C  0.72744448  0.97716886  0.15608573    -0.21800
C1564       C  0.76282585  0.97624064  0.15561301    -0.21800
C1565       C  0.64117026  0.02354109  0.27234339    -0.22900
C1566       C  0.64049492  0.02332561  0.23818425    -0.22900
C1567       C  0.84906821  0.01737537  0.26915345    -0.22900
C1568       C  0.84865553  0.01644074  0.23500090    -0.22900
C1569       C  0.68394201  0.00121675  0.31416106    -0.18200
C1570       C  0.80866232  0.99991203  0.31299710    -0.18200
C1571       C  0.80696117  0.99739289  0.19340682    -0.18200
C1572       C  0.68213568  0.00166349  0.19471757    -0.18200
H1573       H  0.71461029  0.96876559  0.37220199     0.14700
H1574       H  0.78255811  0.96863532  0.37175333     0.14700
H1575       H  0.71140327  0.96791347  0.13659264     0.14700
H1576       H  0.77934206  0.96614837  0.13569526     0.14700
H1577       H  0.61995924  0.03183191  0.28857017     0.13000
H1578       H  0.61871958  0.03155607  0.22281257     0.13000
H1579       H  0.87038702  0.02411739  0.28442726     0.13000
H1580       H  0.86958174  0.02247148  0.21868720     0.13000
H1581       H  0.74507188  0.01743826  0.28322976     0.26200
H1582       H  0.74422991  0.01663082  0.22431245     0.26200
C1583       C  0.63152723  0.01815837  0.11486927    -0.26200
C1584       C  0.60484675  0.99592524  0.11862544    -0.14300
C1585       C  0.60305542  0.97633047  0.14805901     0.36300
C1586       C  0.62814475  0.97875844  0.17274227    -0.25700
C1587       C  0.65492322  0.00083516  0.16881171    -0.14900
C1588       C  0.65623199  0.02102780  0.13978626     0.37400
N1589       N  0.68263119  0.04458667  0.13563281    -0.89200
H1590       H  0.63295153  0.03381301  0.09265302     0.18500
H1591       H  0.62701862  0.96292018  0.19487287     0.18500
N1592       N  0.57809654  0.45904755  0.15519355    -0.88200
H1593       H  0.67079880  0.06932622  0.13234958     0.35900
H1594       H  0.69633608  0.03785174  0.11392975     0.41000
H1595       H  0.56294104  0.95995463  0.17415437     0.40600
H1596       H  0.58854961  0.92831669  0.15613870     0.35500
C1597       C  0.60589698  0.97708847  0.36399583    -0.26200
C1598       C  0.60762815  0.99891663  0.39158116    -0.14300
C1599       C  0.63589662  0.52513590  0.39500267     0.36300
C1600       C  0.66120708  0.52484634  0.37008028    -0.25700
C1601       C  0.65725311  0.00004696  0.34054941    -0.14900
C1602       C  0.63050781  0.97745631  0.33848962     0.37400
N1603       N  0.62830822  0.95491086  0.31055068    -0.89200
H1604       H  0.58555812  0.95948509  0.36237488     0.18500
H1605       H  0.68208540  0.54175126  0.37219923     0.18500
N1606       N  0.63759427  0.54771889  0.42316198    -0.88200
H1607       H  0.60445290  0.96044787  0.29922920     0.35900
H1608       H  0.62902583  0.92953660  0.31934427     0.41000
H1609       H  0.61624620  0.56553944  0.42217052     0.40600
H1610       H  0.65937777  0.56193483  0.42166314     0.35500
C1611       C  0.83255953  0.52161203  0.14119113    -0.26200
C1612       C  0.83330193  0.99607552  0.16658539    -0.14300
C1613       C  0.86120571  0.97100619  0.16649254     0.36300
C1614       C  0.88603793  0.97127019  0.14115184    -0.25700
C1615       C  0.88325209  0.99612698  0.11577823    -0.14900
C1616       C  0.85760124  0.52184186  0.11596627     0.37400
N1617       N  0.85277314  0.54516525  0.08834203    -0.89200
H1618       H  0.80972982  0.53912579  0.13971260     0.18500
H1619       H  0.90737156  0.95181528  0.14112364     0.18500
N1620       N  0.86426675  0.94527432  0.19203501    -0.88200
H1621       H  0.87182249  0.56279955  0.08967513     0.35900
H1622       H  0.82912379  0.55949120  0.09021641     0.41000
H1623       H  0.86475846  0.92103412  0.18072312     0.40600
H1624       H  0.88784291  0.94731023  0.20393868     0.35500
C1625       C  0.83715360  0.52592337  0.36589987    -0.26200
C1626       C  0.83584249  0.99903184  0.33903755    -0.14300
C1627       C  0.86310962  0.97288116  0.34035969     0.36300
C1628       C  0.88788102  0.97391033  0.36556062    -0.25700
C1629       C  0.88533490  0.99935286  0.39035898    -0.14900
C1630       C  0.86174637  0.52572593  0.39110699     0.37400
N1631       N  0.85904682  0.55286432  0.41524587    -0.89200
H1632       H  0.81630602  0.54590577  0.36584588     0.18500
H1633       H  0.90866466  0.95388776  0.36645158     0.18500
N1634       N  0.86622861  0.94466550  0.31715658    -0.88200
H1635       H  0.88199855  0.56532631  0.41506151     0.35900
H1636       H  0.85567823  0.54208678  0.43871494     0.41000
H1637       H  0.84592054  0.94554784  0.30033150     0.40600
H1638       H  0.86448569  0.92185852  0.33070728     0.35500
C1639       C  0.96588168  0.62937095  0.12005421    -0.26200
C1640       C  0.99118782  0.60194137  0.12184399    -0.14300
C1641       C  0.52186355  0.60058190  0.14647225     0.36300
C1642       C  0.52171214  0.62638568  0.17106784    -0.25700
C1643       C  0.98540525  0.65260577  0.17217822    -0.14900
C1644       C  0.96227363  0.65419768  0.14516988     0.37400
N1645       N  0.93436923  0.68013112  0.14306023    -0.89200
H1646       H  0.94843185  0.63125159  0.09912250     0.18500
H1647       H  0.54138299  0.62513491  0.19008003     0.18500
N1648       N  0.54810803  0.57264337  0.14649103    -0.88200
H1649       H  0.94413407  0.70441605  0.14147685     0.35900
H1650       H  0.91962835  0.67911395  0.16477340     0.41000
H1651       H  0.53625932  0.54998986  0.15205597     0.40600
H1652       H  0.56573039  0.57581031  0.16559361     0.35500
C1653       C  0.97377476  0.63628070  0.39443297    -0.26200
C1654       C  0.99725997  0.60724488  0.39313697    -0.14300
C1655       C  0.52327197  0.60547496  0.36633536     0.36300
C1656       C  0.52294730  0.63108877  0.34166699    -0.25700
C1657       C  0.99759294  0.65840557  0.34335871    -0.14900
C1658       C  0.97322825  0.66156396  0.36936833     0.37400
N1659       N  0.94772503  0.69012424  0.36981576    -0.89200
H1660       H  0.95521741  0.63872626  0.41458307     0.18500
H1661       H  0.54034557  0.62800658  0.32061607     0.18500
N1662       N  0.54672324  0.57531063  0.36386785    -0.88200
H1663       H  0.93153474  0.68852440  0.39047513     0.35900
H1664       H  0.93226514  0.68800479  0.34883575     0.41000
H1665       H  0.56385330  0.57586196  0.38374800     0.40600
H1666       H  0.56153779  0.57607629  0.34216985     0.35500
C1667       C  0.52008100  0.88143210  0.13951431    -0.26200
C1668       C  0.99555408  0.87961824  0.11366888    -0.14300
C1669       C  0.97254237  0.85317637  0.11283891     0.36300
C1670       C  0.97272766  0.82917537  0.13903569    -0.25700
C1671       C  0.99624977  0.83049261  0.16531202    -0.14900
C1672       C  0.52098303  0.85691184  0.16505943     0.37400
N1673       N  0.54674641  0.85704195  0.19053397    -0.89200
H1674       H  0.53878242  0.90067980  0.13902611     0.18500
H1675       H  0.95448446  0.80934165  0.13904973     0.18500
N1676       N  0.94883647  0.85111130  0.08576756    -0.88200
H1677       H  0.56271801  0.87724586  0.18674914     0.35900
H1678       H  0.56231854  0.83412736  0.18836990     0.41000
H1679       H  0.93180593  0.87310463  0.08667210     0.40600
H1680       H  0.93402704  0.82986637  0.08874851     0.35500
C1681       C  0.98133946  0.83033195  0.36745934    -0.26200
C1682       C  0.00234950  0.83488389  0.33952965    -0.14300
C1683       C  0.52495141  0.86294136  0.33913751     0.36300
C1684       C  0.52322671  0.88826483  0.36404001    -0.25700
C1685       C  0.99983209  0.88283886  0.39249641    -0.14900
C1686       C  0.98045122  0.85354548  0.39412400     0.37400
N1687       N  0.95933089  0.84754770  0.42250791    -0.89200
H1688       H  0.96570560  0.80833357  0.36870004     0.18500
H1689       H  0.54306270  0.90647486  0.36513639     0.18500
N1690       N  0.55354255  0.86199365  0.31630581    -0.88200
H1691       H  0.96744270  0.82351167  0.43253219     0.35900
H1692       H  0.93397267  0.84631377  0.41445074     0.41000
H1693       H  0.55292029  0.84165972  0.29948295     0.40600
H1694       H  0.57601676  0.85719648  0.33015400     0.35500
O1695       O  0.49644151  0.90153818  0.94539262    -0.75200
O1696       O  0.49803848  0.94569670  0.90802692    -0.54100
C1697       C  0.49694421  0.91366179  0.91554354     0.78500
O1698       O  0.90239524  0.49267352  0.56002801    -0.59800
O1699       O  0.94460147  0.49127873  0.59928307    -0.52900
C1700       C  0.90940820  0.99919245  0.59058628     0.70500
O1701       O  0.90154718  0.49932774  0.94960729    -0.74400
O1702       O  0.94430784  0.49711040  0.91049844    -0.54900
C1703       C  0.91239756  0.49848530  0.91932045     0.76500
O1704       O  0.49426172  0.90028301  0.55724720    -0.59500
O1705       O  0.49788460  0.94204413  0.59674832    -0.52600
C1706       C  0.99392319  0.90988375  0.59136840     0.73100
Zr1707     Zr  0.49989863  0.92298169  0.00251009     2.54700
O1708       O  0.96133493  0.87617633  0.99889577    -0.80100
O1709       O  0.54630017  0.88255850  0.50282668    -0.93500
Zr1710     Zr  0.92670918  0.49785779  0.00517161     2.64700
O1711       O  0.88227801  0.95276053  0.00464526    -0.98500
O1712       O  0.87912538  0.53643464  0.50296562    -0.80500
O1713       O  0.96166307  0.96045882  0.97051480    -0.83900
O1714       O  0.95913305  0.96050005  0.53690383    -2.18600
O1715       O  0.59220616  0.00074315  0.55950718    -0.67300
O1716       O  0.54984190  0.99518794  0.59805111    -0.51800
C1717       C  0.58132167  0.99867451  0.58966377     0.71500
O1718       O  0.99913891  0.59262605  0.95094432    -0.60200
O1719       O  0.00016721  0.55056916  0.91131897    -0.52200
C1720       C  0.49610245  0.58395601  0.91929112     0.73300
O1721       O  0.98774571  0.59040314  0.56314584    -0.71600
O1722       O  0.99594073  0.54653120  0.60081121    -0.50200
C1723       C  0.99159186  0.57867739  0.59304009     0.74700
O1724       O  0.58964271  0.00219872  0.94888128    -0.66900
O1725       O  0.54759967  0.99772271  0.91010715    -0.54100
C1726       C  0.58335352  0.50062190  0.91823474     0.73100
Zr1727     Zr  0.56807179  0.99507701  0.50383231     2.77500
O1728       O  0.61505172  0.53818773  0.00553225    -0.97700
O1729       O  0.61083538  0.94827356  0.00019449    -0.80200
Zr1730     Zr  0.99189997  0.56734540  0.50629423     2.70100
O1731       O  0.53918024  0.61042536  0.50948308    -0.79700
O1732       O  0.94695656  0.61025837  0.00757957    -0.98800
Zr1733     Zr  0.49848802  0.49851032  0.94046346     2.21500
Zr1734     Zr  0.99514567  0.99485791  0.56895745     2.11100
O1735       O  0.53325391  0.53209553  0.53717866    -2.47500
O1736       O  0.53207062  0.53447266  0.97348479    -0.79500
O1737       O  0.53413647  0.95840016  0.53529381    -0.71700
O1738       O  0.96062943  0.53441164  0.97341032    -2.32700
O1739       O  0.53399303  0.95967911  0.97151414    -2.28900
O1740       O  0.95847604  0.53022296  0.53795621    -0.73500
H1741       H  0.94509273  0.94729855  0.55107274     0.78500
H1742       H  0.94612766  0.54936891  0.95940699     0.79600
H1743       H  0.54654608  0.54575026  0.55169477     0.81800
H1744       H  0.54897182  0.94616078  0.95670389     0.79400
H1745       H  0.86101419  0.53351127  0.01573984     0.42500
H1746       H  0.92692719  0.60192149  0.52198588     0.41500
H1747       H  0.55253927  0.60684902  0.00994452     0.41100
H1748       H  0.60837018  0.55407094  0.51681243     0.39100
H1749       H  0.62353481  0.94739622  0.52277665     0.42200
H1750       H  0.55290275  0.87331725  0.98147379     0.37000
H1751       H  0.94311801  0.88196197  0.01560545     0.43100
H1752       H  0.85650018  0.97167044  0.50826835     0.39500
H1753       H  0.63578735  0.52260645  0.51465786     0.44400
H1754       H  0.56026934  0.88778985  0.48306905     0.43200
H1755       H  0.87579283  0.94925296  0.98120512     0.43300
H1756       H  0.94933332  0.63002812  0.50669924     0.43600
N1757       N  0.00678688  0.74668416  0.80555857    -0.36500
N1758       N  0.00399537  0.69236267  0.75598482    -0.57100
N1759       N  0.99864903  0.74451077  0.70482689    -0.36500
N1760       N  0.00489368  0.79833325  0.75418167    -0.57100
C1761       C  0.01499308  0.71833754  0.82411296     0.27100
C1762       C  0.01660046  0.77425847  0.82273015     0.27100
C1763       C  0.00561823  0.71572050  0.68649487     0.27000
C1764       C  0.00586552  0.77171473  0.68570219     0.27000
C1765       C  0.99820431  0.67407085  0.78380570     0.35700
C1766       C  0.99496493  0.67280955  0.73005500     0.35700
C1767       C  0.99988057  0.81887671  0.78099124     0.35700
C1768       C  0.99400077  0.81737707  0.72778991     0.35700
C1769       C  0.03033001  0.72798264  0.85343017    -0.21800
C1770       C  0.03126410  0.76334669  0.85257409    -0.21800
C1771       C  0.01769062  0.72466117  0.65541095    -0.21800
C1772       C  0.01790127  0.76008270  0.65491953    -0.21800
C1773       C  0.98564169  0.64266986  0.77542600    -0.22900
C1774       C  0.98382396  0.64179685  0.74135491    -0.22900
C1775       C  0.98593932  0.85119826  0.77169379    -0.22900
C1776       C  0.98181911  0.85012963  0.73789161    -0.22900
C1777       C  0.00611813  0.68453368  0.81645089    -0.18200
C1778       C  0.00948877  0.80909386  0.81345939    -0.18200
C1779       C  0.99892618  0.80669806  0.69457156    -0.18200
C1780       C  0.99837261  0.68205988  0.69628596    -0.18200
H1781       H  0.03924249  0.71133836  0.87365965     0.14700
H1782       H  0.04094029  0.77928910  0.87198252     0.14700
H1783       H  0.02482749  0.70749389  0.63498456     0.14700
H1784       H  0.02537457  0.77552568  0.63403446     0.14700
H1785       H  0.97856825  0.62239803  0.79205547     0.13000
H1786       H  0.97517966  0.62080821  0.72661261     0.13000
H1787       H  0.97953995  0.87321466  0.78755053     0.13000
H1788       H  0.97186301  0.87130808  0.72242462     0.13000
H1789       H  0.99117344  0.74748349  0.78464484     0.26200
H1790       H  0.98539605  0.74587945  0.72737016     0.26200
N1791       N  0.74408488  0.00565840  0.80538311    -0.36500
N1792       N  0.69146149  0.00536780  0.75413045    -0.57100
N1793       N  0.74464085  0.00398823  0.70365159    -0.36500
N1794       N  0.79734653  0.00054896  0.75473435    -0.57100
C1795       C  0.71613160  0.99843274  0.82357805     0.27100
C1796       C  0.77227727  0.99684924  0.82397339     0.27100
C1797       C  0.71696730  0.99715023  0.68524948     0.27000
C1798       C  0.77292497  0.99395105  0.68562395     0.27000
C1799       C  0.67138679  0.01289335  0.78096097     0.35700
C1800       C  0.67180064  0.01286495  0.72713898     0.35700
C1801       C  0.81686735  0.00673460  0.78146045     0.35700
C1802       C  0.81715307  0.00528762  0.72768728     0.35700
C1803       C  0.72675225  0.98493587  0.85409027    -0.21800
C1804       C  0.76214927  0.98414241  0.85439625    -0.21800
C1805       C  0.72778692  0.98256232  0.65521266    -0.21800
C1806       C  0.76316289  0.98061252  0.65542479    -0.21800
C1807       C  0.63883361  0.02536477  0.77096626    -0.22900
C1808       C  0.63908187  0.02525938  0.73680360    -0.22900
C1809       C  0.84925372  0.01532097  0.77136371    -0.22900
C1810       C  0.84943863  0.01440013  0.73723276    -0.22900
C1811       C  0.68132338  0.00574890  0.81415897    -0.18200
C1812       C  0.80676525  0.00159908  0.81475394    -0.18200
C1813       C  0.80715688  0.99907740  0.69467640    -0.18200
C1814       C  0.68231736  0.00586713  0.69406362    -0.18200
H1815       H  0.71067170  0.97675263  0.87421408     0.14700
H1816       H  0.77857467  0.97523126  0.87471673     0.14700
H1817       H  0.71185665  0.97457281  0.63505099     0.14700
H1818       H  0.77981694  0.97087295  0.63545921     0.14700
H1819       H  0.61703261  0.03317121  0.78664628     0.13000
H1820       H  0.61755431  0.03296281  0.72090795     0.13000
H1821       H  0.87069698  0.02097725  0.78697689     0.13000
H1822       H  0.87101994  0.01934198  0.72130362     0.13000
H1823       H  0.74378295  0.01934645  0.78314739     0.26200
H1824       H  0.74423729  0.01853460  0.72533872     0.26200
C1825       C  0.63039580  0.02648634  0.61571656    -0.26200
C1826       C  0.60681397  0.00070378  0.61658409    -0.14300
C1827       C  0.60792041  0.97705198  0.64318819     0.36300
C1828       C  0.63228198  0.97950257  0.66846356    -0.25700
C1829       C  0.65570392  0.00529139  0.66769659    -0.14900
C1830       C  0.65464762  0.02907226  0.64119738     0.37400
N1831       N  0.67809405  0.05588531  0.64027125    -0.89200
H1832       H  0.62970452  0.04491354  0.59543571     0.18500
H1833       H  0.63332171  0.96082023  0.68852842     0.18500
N1834       N  0.57635556  0.45920848  0.65268293    -0.88200
H1835       H  0.66368131  0.07959566  0.63967852     0.35900
H1836       H  0.69227713  0.05339693  0.61818013     0.41000
H1837       H  0.57106082  0.95165547  0.66615908     0.40600
H1838       H  0.60006214  0.92627678  0.64429420     0.35500
C1839       C  0.60346986  0.98099588  0.86434147    -0.26200
C1840       C  0.60455666  0.00322537  0.89172609    -0.14300
C1841       C  0.63381224  0.52664958  0.89134245     0.36300
C1842       C  0.65736270  0.52772222  0.86497367    -0.25700
C1843       C  0.65406120  0.00509939  0.84032194    -0.14900
C1844       C  0.62818904  0.98146851  0.83889678     0.37400
N1845       N  0.62736609  0.95747531  0.81196166    -0.89200
H1846       H  0.58387852  0.96253418  0.86310268     0.18500
H1847       H  0.67616874  0.54702300  0.86506590     0.18500
N1848       N  0.63502643  0.55079223  0.91809577    -0.88200
H1849       H  0.60350731  0.96135810  0.80024649     0.35900
H1850       H  0.62913071  0.93253163  0.82188546     0.41000
H1851       H  0.63205280  0.57568916  0.90815783     0.40600
H1852       H  0.65942862  0.54764361  0.92885362     0.35500
C1853       C  0.83104901  0.50958153  0.64053131    -0.26200
C1854       C  0.83358116  0.99854690  0.66796651    -0.14300
C1855       C  0.85942648  0.97151750  0.66543764     0.36300
C1856       C  0.88446953  0.97243418  0.64034219    -0.25700
C1857       C  0.88336794  0.99949775  0.61715368    -0.14900
C1858       C  0.85507674  0.51028112  0.61459651     0.37400
N1859       N  0.84781218  0.53221095  0.58648751    -0.89200
H1860       H  0.80740094  0.52591276  0.63898429     0.18500
H1861       H  0.90437570  0.95159219  0.63850587     0.18500
N1862       N  0.85984779  0.94290635  0.68794519    -0.88200
H1863       H  0.84345090  0.55754955  0.59502310     0.35900
H1864       H  0.82513556  0.52490813  0.57554835     0.41000
H1865       H  0.85811653  0.92042796  0.67396307     0.40600
H1866       H  0.88355762  0.94117737  0.70011054     0.35500
C1867       C  0.83686849  0.52704919  0.86390379    -0.26200
C1868       C  0.83374237  0.00040941  0.84107497    -0.14300
C1869       C  0.85758504  0.97154758  0.84491421     0.36300
C1870       C  0.88353270  0.97211418  0.86899310    -0.25700
C1871       C  0.88572858  0.00066222  0.89004706    -0.14900
C1872       C  0.86101778  0.52703234  0.88959257     0.37400
N1873       N  0.85990654  0.55596532  0.91169077    -0.89200
H1874       H  0.81803001  0.54876418  0.86146735     0.18500
H1875       H  0.90153579  0.94977647  0.87186737     0.18500
N1876       N  0.85536511  0.94103624  0.82531088    -0.88200
H1877       H  0.88386759  0.56653829  0.91110050     0.35900
H1878       H  0.85534200  0.54727283  0.93578766     0.41000
H1879       H  0.85805866  0.94744997  0.80025743     0.40600
H1880       H  0.83093879  0.93200881  0.82883774     0.35500
C1881       C  0.96695531  0.63147013  0.62233392    -0.26200
C1882       C  0.99239026  0.60414375  0.62033731    -0.14300
C1883       C  0.51709827  0.60247322  0.64622941     0.36300
C1884       C  0.51619848  0.62824544  0.67067678    -0.25700
C1885       C  0.99548712  0.65519589  0.67013945    -0.14900
C1886       C  0.96807686  0.65677995  0.64706506     0.37400
N1887       N  0.94078252  0.68342083  0.64853091    -0.89200
H1888       H  0.94601237  0.63306370  0.60463798     0.18500
H1889       H  0.53561832  0.62710827  0.68992725     0.18500
N1890       N  0.54344285  0.57487514  0.64706707    -0.88200
H1891       H  0.95099465  0.70726477  0.64472352     0.35900
H1892       H  0.92974408  0.68326293  0.67225852     0.41000
H1893       H  0.54151933  0.56194507  0.66974083     0.40600
H1894       H  0.56732969  0.58559063  0.64630644     0.35500
C1895       C  0.98324203  0.63965422  0.89693863    -0.26200
C1896       C  0.00331425  0.60839808  0.89426732    -0.14300
C1897       C  0.51633459  0.60468423  0.86342480     0.36300
C1898       C  0.51659926  0.63062057  0.83917982    -0.25700
C1899       C  0.00534637  0.65880615  0.84391135    -0.14900
C1900       C  0.98331461  0.66453671  0.87161022     0.37400
N1901       N  0.96071085  0.69532923  0.87357582    -0.89200
H1902       H  0.96641621  0.64406568  0.91825758     0.18500
H1903       H  0.53252961  0.62633691  0.81721352     0.18500
N1904       N  0.53629834  0.57274413  0.85823444    -0.88200
H1905       H  0.94636431  0.69569895  0.89561494     0.35900
H1906       H  0.94312229  0.69458150  0.85408444     0.41000
H1907       H  0.56200115  0.57812723  0.85480939     0.40600
H1908       H  0.52782502  0.56168311  0.83632265     0.35500
C1909       C  0.51994307  0.88238192  0.63812631    -0.26200
C1910       C  0.99340792  0.88412297  0.61814392    -0.14300
C1911       C  0.97206152  0.85626362  0.61671407     0.36300
C1912       C  0.97414333  0.83133377  0.64201618    -0.25700
C1913       C  0.99764537  0.83341105  0.66812392    -0.14900
C1914       C  0.52042808  0.85699986  0.66296315     0.37400
N1915       N  0.54725335  0.85473357  0.68743956    -0.89200
H1916       H  0.53994302  0.90033949  0.63734258     0.18500
H1917       H  0.95745134  0.81015006  0.64143869     0.18500
N1918       N  0.94813302  0.85366270  0.58989359    -0.88200
H1919       H  0.56426404  0.87404956  0.68360903     0.35900
H1920       H  0.56143806  0.83115577  0.68400160     0.41000
H1921       H  0.92995011  0.87467647  0.59170914     0.40600
H1922       H  0.93466114  0.83143347  0.59242036     0.35500
C1923       C  0.98201888  0.83657347  0.86287043    -0.26200
C1924       C  0.00886511  0.83608134  0.83956283    -0.14300
C1925       C  0.52125863  0.86479331  0.83654729     0.36300
C1926       C  0.52046930  0.88922341  0.86228609    -0.25700
C1927       C  0.00243681  0.88755522  0.88879909    -0.14900
C1928       C  0.97863408  0.86200343  0.88740918     0.37400
N1929       N  0.95043961  0.86235820  0.91040802    -0.89200
H1930       H  0.96329250  0.81722435  0.86173430     0.18500
H1931       H  0.53992893  0.90786092  0.86291461     0.18500
N1932       N  0.54826120  0.86558202  0.81208124    -0.88200
H1933       H  0.95178080  0.83876067  0.92302558     0.35900
H1934       H  0.92758327  0.86427988  0.89679710     0.41000
H1935       H  0.54751074  0.84545477  0.79505600     0.40600
H1936       H  0.57173248  0.86160630  0.82447314     0.35500
loop_ 
_geom_bond_atom_site_label_1 
_geom_bond_atom_site_label_2 
_geom_bond_distance 
_geom_bond_site_symmetry_2 
_ccdc_geom_bond_type 
O1          Zr13   2.440       .  S
O1            C3   1.288       .  A
O2         Zr523   2.431       .  S
O2            C3   1.287       .  A
C3         C1201   1.479       .  S
O4         Zr258   2.438       .  S
O4          C490   1.287       .  A
O5         Zr524   2.415       .  S
O5          C490   1.285       .  A
C6          O488   1.288       .  A
C6          O489   1.283       .  A
C6          C163   1.472       .  S
O7          Zr16   2.435   1_565  S
O7            C9   1.286       .  A
O8        Zr1007   2.443       .  S
O8            C9   1.290       .  A
C9          C661   1.480       .  S
O10        Zr255   2.452       .  S
O10         C980   1.290       .  A
O11       Zr1008   2.407   1_455  S
O11         C980   1.283       .  A
C12         O978   1.284       .  A
C12         O979   1.284       .  A
C12         C216   1.461       .  S
Zr13        O252   2.434       .  S
Zr13         O45   2.372       .  S
Zr13        O987   2.372   1_455  S
Zr13       O1230   2.368   1_455  S
Zr13        O285   2.377       .  S
Zr13        O982   2.434   1_455  S
Zr13        O257   2.436       .  S
O14        Zr981   2.436       .  S
O14          H57   0.990       .  S
O15        Zr255   2.435       .  S
O15          H60   0.990       .  S
O15         H298   0.990   1_554  S
Zr16        O246   2.445       .  S
Zr16         O44   2.372       .  S
Zr16        O746   2.368   1_545  S
Zr16        O503   2.370   1_545  S
Zr16        O288   2.369       .  S
Zr16        O501   2.436   1_545  S
Zr16        O260   2.434       .  S
O17        Zr500   2.435       .  S
O17          H61   0.990       .  S
O17         H300   0.990       .  S
O18        Zr258   2.434   1_545  S
O18         H293   0.990       .  S
O19        Zr981   2.376       .  S
O19        Zr500   2.372       .  S
O19       Zr1491   2.379       .  S
O20         Zr40   2.389       .  S
O20       Zr1223   2.377       .  S
O20        Zr742   2.366       .  S
O20          H47   0.965       .  S
O21         Zr33   2.445       .  S
O21          C23   1.289       .  A
O22       Zr1008   2.438   1_455  S
O22          C23   1.289       .  A
C23         C132   1.486       .  S
O24        Zr278   2.445       .  S
O24         C994   1.289       .  A
O25       Zr1007   2.432   1_545  S
O25         C994   1.288       .  A
C26         O992   1.287       .  A
C26         O993   1.285       .  A
C26        C1170   1.471       .  S
O27         Zr36   2.441       .  S
O27          C29   1.288       .  A
O28        Zr524   2.432   1_545  S
O28          C29   1.288       .  A
C29         C188   1.478       .  S
O30        Zr275   2.453       .  S
O30         C516   1.291       .  A
O31        Zr523   2.417       .  S
O31         C516   1.285       .  A
C32         O514   1.288       .  A
C32         O515   1.283       .  A
C32         C630   1.474       .  S
Zr33        O272   2.439   1_554  S
Zr33         O43   2.373       .  S
Zr33        O525   2.372       .  S
Zr33        O768   2.371   1_554  S
Zr33        O287   2.373   1_554  S
Zr33        O760   2.437       .  S
Zr33        O277   2.434       .  S
O34        Zr759   2.437   1_545  S
O34         H296   0.990       .  S
O34         H301   0.990       .  S
O35        Zr275   2.435       .  S
O35         H297   0.990       .  S
Zr36        O266   2.435   1_554  S
Zr36         O46   2.364       .  S
Zr36       O1252   2.376   1_554  S
Zr36       O1009   2.377       .  S
Zr36        O286   2.358   1_554  S
Zr36       O1005   2.435       .  S
Zr36        O280   2.435       .  S
O37       Zr1004   2.435   1_455  S
O37         H295   0.990   1_554  S
O38        Zr278   2.438       .  S
O38         H294   0.990       .  S
O38         H304   0.990       .  S
Zr39        O486   2.425       .  S
Zr39        O976   2.428       .  S
Zr39        O993   2.416   1_565  S
Zr39        O515   2.410   1_655  S
Zr39         O42   2.383   1_665  S
Zr39       O1471   2.379       .  S
Zr39       O1012   2.385   1_565  S
Zr39        O529   2.382   1_655  S
Zr40        O489   2.410       .  S
Zr40        O979   2.412       .  S
Zr40        O990   2.426       .  S
Zr40        O512   2.410       .  S
Zr40       O1493   2.382       .  S
Zr40       O1011   2.376       .  S
Zr40        O530   2.391       .  S
O41        Zr517   2.363   1_545  S
O41       Zr1004   2.373   1_455  S
O41       Zr1492   2.380   1_445  S
O41          H49   0.967       .  S
O42        Zr759   2.367   1_545  S
O42       Zr1246   2.376   1_455  S
O43        Zr255   2.379       .  S
O43       Zr1008   2.380   1_455  S
O44        Zr278   2.375       .  S
O44       Zr1007   2.389   1_545  S
O44          H48   0.965       .  S
O45        Zr275   2.379       .  S
O45        Zr523   2.381       .  S
O45          H50   0.967       .  S
O46        Zr258   2.372   1_545  S
O46        Zr524   2.379   1_545  S
H51         O260   0.990       .  S
H52         O280   0.990       .  S
H53         O279   0.990       .  S
H54         O276   0.989       .  S
H55         O277   0.990       .  S
H56         O257   0.990       .  S
H58         O259   0.991   1_556  S
H59         O276   0.990       .  S
H62         O280   0.990   1_556  S
N63          C68   1.353       .  A
N63          C67   1.353       .  A
N63          H95   1.040       .  S
N64          C71   1.351       .  A
N64          C72   1.353       .  A
N65          C70   1.351       .  A
N65          C69   1.353       .  A
N65          H96   1.040       .  S
N66          C73   1.350       .  A
N66          C74   1.348       .  A
C67          C75   1.387       .  A
C67          C83   1.415       .  A
C68          C84   1.412       .  A
C68          C76   1.386       .  A
C69          C77   1.386       .  A
C69          C86   1.413       .  A
C70          C85   1.414       .  A
C70          C78   1.389       .  A
C71          C83   1.414       .  A
C71          C79   1.387       .  A
C72          C86   1.412       .  A
C72          C80   1.385       .  A
C73          C81   1.385       .  A
C73          C84   1.409       .  A
C74          C82   1.388       .  A
C74          C85   1.411       .  A
C75          C76   1.374       .  A
C75          H87   1.082       .  S
C76          H88   1.082       .  S
C77          C78   1.375       .  A
C77          H89   1.082       .  S
C78          H90   1.082       .  S
C79          C80   1.374       .  A
C79          H91   1.082       .  S
C80          H92   1.082       .  S
C81          C82   1.374       .  A
C81          H93   1.082       .  S
C82          H94   1.083       .  S
C83         C205   1.493       .  S
C84         C230   1.486       .  S
C85         C219   1.479       .  S
C86         C191   1.492       .  S
N97         C102   1.354       .  A
N97         C101   1.354       .  A
N97         H129   1.040       .  S
N98         C105   1.353       .  A
N98         C106   1.354       .  A
N99         C104   1.352       .  A
N99         C103   1.352       .  A
N99         H130   1.041       .  S
N100        C107   1.349       .  A
N100        C108   1.349       .  A
C101        C109   1.388       .  A
C101        C117   1.418       .  A
C102        C118   1.416       .  A
C102        C110   1.386       .  A
C103        C111   1.388       .  A
C103        C120   1.413       .  A
C104        C119   1.410       .  A
C104        C112   1.386       .  A
C105        C117   1.418       .  A
C105        C113   1.386       .  A
C106        C120   1.418       .  A
C106        C114   1.386       .  A
C107        C115   1.386       .  A
C107        C118   1.410       .  A
C108        C116   1.386       .  A
C108        C119   1.408       .  A
C109        C110   1.376       .  A
C109        H121   1.082       .  S
C110        H122   1.082       .  S
C111        C112   1.375       .  A
C111        H123   1.082       .  S
C112        H124   1.083       .  S
C113        C114   1.375       .  A
C113        H125   1.082       .  S
C114        H126   1.082       .  S
C115        C116   1.374       .  A
C115        H127   1.082       .  S
C116        H128   1.082       .  S
C117        C149   1.497       .  S
C118        C174   1.489       .  S
C119        C160   1.484       .  S
C120        C135   1.498       .  S
C131        C132   1.405       .  A
C131        C136   1.405       .  A
C131        H138   1.084       .  S
C132        C133   1.410       .  A
C133        C134   1.405       .  A
C133        N624   1.429       .  S
C134        C135   1.403       .  A
C134        H139   1.084       .  S
C135        C136   1.412       .  A
C136        N137   1.433       .  S
N137        H141   1.046       .  S
N137        H142   1.046       .  S
N140        C617   1.427       .  S
N140        H627   1.046       .  S
N140        H628   1.046       .  S
H143        N624   1.046       .  S
H144        N624   1.046       .  S
C145        C146   1.403       .  A
C145        C150   1.403       .  A
C145        H152   1.084       .  S
C146        C516   1.478       .  S
C146        C631   1.411       .  A
C147        C148   1.402       .  A
C147        C630   1.408   1_545  A
C147        N154   1.432       .  S
C148        C633   1.403   1_545  A
C148        H153   1.084       .  S
C149        C150   1.410       .  A
C149        C632   1.406       .  A
C150        N151   1.432       .  S
N151        H155   1.046       .  S
N151        H156   1.046       .  S
N154        H157   1.046       .  S
N154        H158   1.046       .  S
C159        C164   1.400       .  A
C159        C644   1.403   1_545  A
C159        H166   1.084       .  S
C160        C161   1.410       .  A
C160        C643   1.401       .  A
C161        C162   1.406       .  A
C161        N168   1.438       .  S
C162        C163   1.404       .  A
C162        H167   1.084       .  S
C163        C648   1.408       .  A
C164        C647   1.408   1_545  A
C164        N165   1.433       .  S
N165        H169   1.046       .  S
N165        H170   1.046       .  S
N168        H171   1.046       .  S
N168        H172   1.045       .  S
C173        C178   1.399       .  A
C173        C658   1.402   1_545  A
C173        H180   1.084       .  S
C174        C175   1.409       .  A
C174        C657   1.402       .  A
C175        C176   1.403       .  A
C175        N182   1.432       .  S
C176        C177   1.404       .  A
C176        H181   1.084       .  S
C177        C493   1.478       .  S
C177        C662   1.416       .  A
C178        C661   1.414   1_545  A
C178        N179   1.433       .  S
N179        H183   1.046       .  S
N179        H184   1.044       .  S
N182        H185   1.045       .  S
N182        H186   1.046       .  S
C187        C188   1.404       .  A
C187        C192   1.400       .  A
C187        H194   1.084       .  S
C188       C1157   1.411       .  A
C189        C190   1.408       .  A
C189       C1156   1.412   1_455  A
C189        N196   1.439       .  S
C190       C1159   1.404   1_455  A
C190        H195   1.084       .  S
C191        C192   1.414       .  A
C191       C1158   1.405       .  A
C192        N193   1.433       .  S
N193        H197   1.044       .  S
N193        H198   1.045       .  S
N196        H199   1.046       .  S
N196        H200   1.046       .  S
C201        C202   1.405       .  A
C201        C206   1.407       .  A
C201        H208   1.084       .  S
C202        C994   1.482       .  S
C202       C1171   1.412       .  A
C203        C204   1.406       .  A
C203       C1170   1.411   1_455  A
C203        N210   1.439       .  S
C204       C1173   1.406   1_455  A
C204        H209   1.084       .  S
C205        C206   1.412       .  A
C205       C1172   1.404       .  A
C206        N207   1.438       .  S
N207        H211   1.045       .  S
N207        H212   1.046       .  S
N210        H213   1.046       .  S
N210        H214   1.046       .  S
C215        C220   1.405       .  A
C215       C1184   1.402       .  A
C215        H222   1.080       .  S
C216        C217   1.409       .  A
C216       C1183   1.399       .  A
C217        C218   1.400       .  A
C217        N224   1.438       .  S
C218        C219   1.402       .  A
C218        H223   1.084       .  S
C219       C1188   1.410       .  A
C220       C1187   1.412       .  A
C220        N221   1.438       .  S
N221        H225   1.046       .  S
N221        H226   1.045       .  S
N224        H227   1.046       .  S
N224        H228   1.046       .  S
C229        C230   1.402       .  A
C229        C234   1.402       .  A
C229        H236   1.084       .  S
C230       C1199   1.408       .  A
C231        C232   1.406       .  A
C231       C1198   1.412       .  A
C231        N238   1.433       .  S
C232       C1201   1.404       .  A
C232        H237   1.084       .  S
C233        C971   1.473       .  S
C233        C234   1.408       .  A
C233       C1200   1.404       .  A
C234        N235   1.432       .  S
N235        H239   1.046       .  S
N235        H240   1.045       .  S
N238        H241   1.045       .  S
N238        H242   1.046       .  S
O243       Zr255   2.458   1_656  S
O243        C245   1.290   1_655  A
O244       Zr765   2.414   1_455  S
O244        C245   1.284       .  A
C245       C1443   1.474       .  S
O246        C732   1.289       .  A
O247       Zr766   2.411       .  S
O247        C732   1.284   1_565  A
C248        O730   1.288       .  A
C248        O731   1.285       .  A
C248        C405   1.474       .  S
O249       Zr258   2.434   1_546  S
O249        C251   1.286       .  A
O250      Zr1249   2.433       .  S
O250        C251   1.288   1_565  A
C251        C903   1.475       .  S
O252       C1222   1.286       .  A
O253      Zr1250   2.422   1_455  S
O253       C1222   1.286       .  A
C254       O1220   1.287       .  A
C254       O1221   1.287       .  A
C254        C458   1.474       .  S
Zr255      O1229   2.373   1_454  S
Zr255       O988   2.374   1_455  S
Zr255       O287   2.369   1_554  S
Zr255      O1224   2.435   1_454  S
O256      Zr1223   2.434       .  S
O256        H299   0.990   1_554  S
O257        H302   0.990       .  S
Zr258       O504   2.366       .  S
Zr258       O745   2.372   1_554  S
Zr258       O286   2.372   1_564  S
Zr258       O743   2.436       .  S
O259       Zr742   2.436       .  S
O259        H303   0.990   1_554  S
O261      Zr1223   2.367   1_556  S
O261       Zr742   2.371   1_556  S
O261      Zr1733   2.376       .  S
O262       Zr981   2.376       .  S
O262       Zr500   2.366       .  S
O262       Zr282   2.388       .  S
O262        H289   0.967       .  S
O263       Zr275   2.448       .  S
O263        C265   1.289       .  A
O264      Zr1250   2.422   1_455  S
O264        C265   1.286       .  A
C265        C374   1.481       .  S
O266       C1236   1.287       .  A
O267      Zr1249   2.423   1_545  S
O267       C1236   1.286       .  A
C268       O1234   1.289   1_455  A
C268       O1235   1.286       .  A
C268       C1412   1.477       .  S
O269       Zr278   2.453       .  S
O269        C271   1.289       .  A
O270       Zr766   2.406   1_545  S
O270        C271   1.283       .  A
C271        C430   1.470       .  S
O272        C758   1.287       .  A
O273       Zr765   2.426   1_455  S
O273        C758   1.286       .  A
C274        O756   1.289       .  A
C274        O757   1.288   1_545  A
C274        C872   1.484       .  S
Zr275       O767   2.369       .  S
Zr275       O526   2.368       .  S
Zr275       O285   2.377       .  S
Zr275       O518   2.437       .  S
O276       Zr517   2.439   1_545  S
Zr278      O1010   2.377       .  S
Zr278      O1251   2.371       .  S
Zr278       O288   2.368       .  S
Zr278      O1247   2.436       .  S
O279      Zr1246   2.433   1_455  S
Zr281       O728   2.422   1_655  S
Zr281      O1218   2.449       .  S
Zr281      O1235   2.419   1_665  S
Zr281       O757   2.431   1_655  S
Zr281      O1713   2.384       .  S
Zr281       O284   2.380   1_665  S
Zr281      O1254   2.389   1_565  S
Zr281       O771   2.386   1_655  S
Zr282       O731   2.416       .  S
Zr282      O1221   2.428       .  S
Zr282      O1232   2.420       .  S
Zr282       O754   2.424       .  S
Zr282      O1735   2.382       .  S
Zr282      O1253   2.379       .  S
Zr282       O772   2.386       .  S
O283       Zr759   2.370   1_545  S
O283      Zr1246   2.367   1_455  S
O283      Zr1734   2.379   1_445  S
O283        H291   0.969       .  S
O284       Zr517   2.364   1_546  S
O284      Zr1004   2.370   1_456  S
O285      Zr1250   2.382   1_455  S
O286      Zr1249   2.377   1_545  S
O286        H290   0.965       .  S
O287       Zr765   2.383   1_455  S
O287        H292   0.967       .  S
O288       Zr766   2.386   1_545  S
N305        C310   1.353       .  A
N305        C309   1.354       .  A
N305        H337   1.040       .  S
N306        C313   1.352       .  A
N306        C314   1.352       .  A
N307        C312   1.352       .  A
N307        C311   1.351       .  A
N307        H338   1.040       .  S
N308        C315   1.352       .  A
N308        C316   1.352       .  A
C309        C317   1.387       .  A
C309        C325   1.416       .  A
C310        C326   1.415       .  A
C310        C318   1.387       .  A
C311        C319   1.388       .  A
C311        C328   1.412       .  A
C312        C327   1.412       .  A
C312        C320   1.387       .  A
C313        C325   1.415       .  A
C313        C321   1.387       .  A
C314        C328   1.414       .  A
C314        C322   1.386       .  A
C315        C323   1.386       .  A
C315        C326   1.414       .  A
C316        C324   1.386       .  A
C316        C327   1.415       .  A
C317        C318   1.376       .  A
C317        H329   1.082       .  S
C318        H330   1.082       .  S
C319        C320   1.374       .  A
C319        H331   1.083       .  S
C320        H332   1.082       .  S
C321        C322   1.376       .  A
C321        H333   1.082       .  S
C322        H334   1.082       .  S
C323        C324   1.375       .  A
C323        H335   1.082       .  S
C324        H336   1.082       .  S
C325        C447   1.493       .  S
C326        C472   1.492       .  S
C327        C461   1.490       .  S
C328        C433   1.487       .  S
N339        C344   1.352       .  A
N339        C343   1.352       .  A
N339        H371   1.041       .  S
N340        C347   1.349       .  A
N340        C348   1.350       .  A
N341        C346   1.351       .  A
N341        C345   1.351       .  A
N341        H372   1.042       .  S
N342        C349   1.350       .  A
N342        C350   1.349       .  A
C343        C351   1.387       .  A
C343        C359   1.414       .  A
C344        C360   1.413       .  A
C344        C352   1.386       .  A
C345        C353   1.387       .  A
C345        C362   1.412       .  A
C346        C361   1.413       .  A
C346        C354   1.387       .  A
C347        C359   1.409       .  A
C347        C355   1.386       .  A
C348        C362   1.411       .  A
C348        C356   1.386       .  A
C349        C357   1.385       .  A
C349        C360   1.410       .  A
C350        C358   1.386       .  A
C350        C361   1.410       .  A
C351        C352   1.379       .  A
C351        H363   1.082       .  S
C352        H364   1.082       .  S
C353        C354   1.380       .  A
C353        H365   1.082       .  S
C354        H366   1.082       .  S
C355        C356   1.374       .  A
C355        H367   1.082       .  S
C356        H368   1.082       .  S
C357        C358   1.375       .  A
C357        H369   1.082       .  S
C358        H370   1.082       .  S
C359        C391   1.487       .  S
C360        C416   1.488       .  S
C361        C402   1.486       .  S
C362        C377   1.489       .  S
C373        C374   1.406       .  A
C373        C378   1.404       .  A
C373        H380   1.084       .  S
C374        C375   1.410       .  A
C375        C376   1.400       .  A
C375        N866   1.429       .  S
C376        C377   1.401       .  A
C376        H381   1.084       .  S
C377        C378   1.409       .  A
C378        N379   1.432       .  S
N379        H383   1.046       .  S
N379        H384   1.046       .  S
N382        C859   1.435       .  S
N382        H869   1.045       .  S
N382        H870   1.046       .  S
H385        N866   1.046       .  S
H386        N866   1.045       .  S
C387        C388   1.403       .  A
C387        C392   1.403       .  A
C387        H394   1.083       .  S
C388        C758   1.475       .  S
C388        C873   1.412       .  A
C389        C872   1.412       .  A
C389        C390   1.407       .  A
C389        N396   1.432       .  S
C390        C875   1.407       .  A
C390        H395   1.084       .  S
C391        C874   1.401       .  A
C391        C392   1.409       .  A
C392        N393   1.432       .  S
N393        H397   1.046       .  S
N393        H398   1.046       .  S
N396        H399   1.046       .  S
N396        H400   1.046       .  S
C401        C886   1.401       .  A
C401        C406   1.401       .  A
C401        H408   1.084       .  S
C402        C885   1.402       .  A
C402        C403   1.409       .  A
C403        C404   1.403       .  A
C403        N410   1.432       .  S
C404        C405   1.404       .  A
C404        H409   1.084       .  S
C405        C890   1.409       .  A
C406        C889   1.408       .  A
C406        N407   1.432       .  S
N407        H411   1.046       .  S
N407        H412   1.045       .  S
N410        H413   1.046       .  S
N410        H414   1.045       .  S
C415        C900   1.403       .  A
C415        C420   1.401       .  A
C415        H422   1.084       .  S
C416        C899   1.404       .  A
C416        C417   1.418       .  A
C417        C418   1.403       .  A
C417        N424   1.439       .  S
C418        C419   1.403       .  A
C418        H423   1.084       .  S
C419        C735   1.478       .  S
C419        C904   1.414       .  A
C420        C903   1.416       .  A
C420        N421   1.433       .  S
N421        H425   1.046       .  S
N421        H426   1.044       .  S
N424        H427   1.043       .  S
N424        H428   1.046       .  S
C429        C430   1.401       .  A
C429        C434   1.397       .  A
C429        H436   1.084       .  S
C430       C1399   1.409       .  A
C431       C1398   1.407   1_455  A
C431        C432   1.404       .  A
C431        N438   1.433       .  S
C432       C1401   1.403   1_455  A
C432        H437   1.084       .  S
C433       C1400   1.403       .  A
C433        C434   1.415       .  A
C434        N435   1.433       .  S
N435        H439   1.044       .  S
N435        H440   1.045       .  S
N438        H441   1.046       .  S
N438        H442   1.046       .  S
C443        C444   1.403       .  A
C443        C448   1.406       .  A
C443        H450   1.084       .  S
C444       C1236   1.475       .  S
C444       C1413   1.410       .  A
C445       C1412   1.414       .  A
C445        C446   1.408       .  A
C445        N452   1.438       .  S
C446       C1415   1.404       .  A
C446        H451   1.084       .  S
C447       C1414   1.404       .  A
C447        C448   1.412       .  A
C448        N449   1.438       .  S
N449        H453   1.046       .  S
N449        H454   1.046       .  S
N452        H455   1.046       .  S
N452        H456   1.046       .  S
C457       C1426   1.397       .  A
C457        C462   1.400       .  A
C457        H464   1.078       .  S
C458       C1425   1.401       .  A
C458        C459   1.411       .  A
C459        C460   1.406       .  A
C459        N466   1.438       .  S
C460        C461   1.404       .  A
C460        H465   1.084       .  S
C461       C1430   1.410       .  A
C462       C1429   1.409       .  A
C462        N463   1.437       .  S
N463        H467   1.045       .  S
N463        H468   1.046       .  S
N466        H469   1.046       .  S
N466        H470   1.046       .  S
C471        C472   1.403       .  A
C471        C476   1.402       .  A
C471        H478   1.084       .  S
C472       C1441   1.420       .  A
C473       C1440   1.409       .  A
C473        C474   1.405       .  A
C473        N480   1.432       .  S
C474       C1443   1.404       .  A
C474        H479   1.083       .  S
C475       C1213   1.478       .  S
C475       C1442   1.403       .  A
C475        C476   1.407       .  A
C476        N477   1.432       .  S
N477        H481   1.045       .  S
N477        H482   1.046       .  S
N480        H483   1.046       .  S
N480        H484   1.046       .  S
O485       Zr497   2.441       .  S
O485        C487   1.287       .  A
O486        C487   1.286       .  A
C487       C1685   1.480       .  S
O488       Zr742   2.445       .  S
C490        C647   1.471       .  S
O491       Zr500   2.449       .  S
O491        C493   1.289       .  A
O492      Zr1491   2.428       .  S
O492        C493   1.287       .  A
O494       Zr739   2.445       .  S
O494       C1464   1.287       .  A
O495      Zr1492   2.417       .  S
O495       C1464   1.285       .  A
C496       O1462   1.287       .  A
C496       O1463   1.286       .  A
C496        C700   1.468       .  S
Zr497       O736   2.438       .  S
Zr497      O1471   2.374       .  S
Zr497      O1714   2.364       .  S
Zr497       O769   2.382   1_655  S
Zr497       O529   2.376   1_655  S
Zr497      O1466   2.437       .  S
Zr497       O741   2.437   1_655  S
O498      Zr1465   2.435       .  S
O498        H541   0.990       .  S
O499       Zr739   2.434   1_455  S
O499        H782   0.990       .  S
O499        H544   0.990       .  S
Zr500       O730   2.441       .  S
Zr500       O528   2.373       .  S
Zr500       O772   2.374       .  S
Zr500       O744   2.434       .  S
O501        H784   0.990       .  S
O501        H545   0.990       .  S
O502       Zr742   2.436       .  S
O502        H777   0.989       .  S
O503      Zr1465   2.367       .  S
O503      Zr1007   2.377       .  S
O504      Zr1707   2.376       .  S
O504       Zr524   2.386       .  S
O504        H531   0.964       .  S
O505       Zr517   2.445       .  S
O505        C507   1.288       .  A
O506      Zr1492   2.428   1_455  S
O506        C507   1.286       .  A
C507        C616   1.479       .  S
O508       Zr762   2.450       .  S
O508       C1478   1.290       .  A
O509      Zr1491   2.405       .  S
O509       C1478   1.283       .  A
C510       O1476   1.291       .  A
C510       O1477   1.285       .  A
C510       C1654   1.477       .  S
O511       Zr520   2.465       .  S
O511        C513   1.293       .  A
O512        C513   1.283       .  A
C513        C672   1.478       .  S
O514       Zr759   2.449       .  S
Zr517       O756   2.448   1_564  S
Zr517       O771   2.379   1_554  S
Zr517       O527   2.383       .  S
Zr517       O761   2.437       .  S
O518        H780   0.990       .  S
O518        H785   0.990       .  S
O519       Zr759   2.435       .  S
O519        H781   0.990       .  S
Zr520       O750   2.458   1_554  S
Zr520      O1736   2.377   1_554  S
Zr520      O1493   2.374       .  S
Zr520       O530   2.371       .  S
Zr520       O770   2.372   1_554  S
Zr520      O1489   2.433       .  S
Zr520       O764   2.437       .  S
O521      Zr1488   2.439   1_455  S
O521        H779   0.990   1_554  S
O522       Zr762   2.438       .  S
O522        H778   0.990       .  S
O522        H788   0.990       .  S
Zr523      O1460   2.430   1_455  S
Zr523      O1477   2.413   1_455  S
Zr523       O987   2.376   1_455  S
Zr523       O526   2.382       .  S
Zr523      O1496   2.384   1_455  S
Zr524      O1463   2.418       .  S
Zr524      O1474   2.422       .  S
Zr524      O1009   2.384   1_565  S
Zr524      O1495   2.382       .  S
O525      Zr1488   2.372   1_455  S
O525      Zr1008   2.384   1_455  S
O525        H533   0.966       .  S
O526      Zr1730   2.374   1_455  S
O527       Zr739   2.376   1_455  S
O527      Zr1492   2.383   1_455  S
O528       Zr762   2.369       .  S
O528      Zr1491   2.388       .  S
O528        H532   0.964       .  S
O529       Zr759   2.375       .  S
O529        H534   0.964       .  S
O530       Zr742   2.377       .  S
H535        O744   0.990       .  S
H536        O764   0.989       .  S
H537        O763   0.990       .  S
H538        O760   0.991   1_556  S
H539        O761   0.990       .  S
H540        O741   0.990       .  S
H542        O743   0.990   1_556  S
H543        O760   0.990   1_556  S
H546        O764   0.990       .  S
N547        C552   1.353       .  A
N547        C551   1.351       .  A
N547        H579   1.040       .  S
N548        C555   1.348       .  A
N548        C556   1.351       .  A
N549        C554   1.350       .  A
N549        C553   1.352       .  A
N549        H580   1.040       .  S
N550        C557   1.350       .  A
N550        C558   1.348       .  A
C551        C559   1.387       .  A
C551        C567   1.414       .  A
C552        C568   1.413       .  A
C552        C560   1.386       .  A
C553        C561   1.386       .  A
C553        C570   1.412       .  A
C554        C569   1.412       .  A
C554        C562   1.388       .  A
C555        C567   1.411       .  A
C555        C563   1.387       .  A
C556        C570   1.408       .  A
C556        C564   1.384       .  A
C557        C565   1.385       .  A
C557        C568   1.409       .  A
C558        C566   1.388       .  A
C558        C569   1.411       .  A
C559        C560   1.377       .  A
C559        H571   1.082       .  S
C560        H572   1.082       .  S
C561        C562   1.376       .  A
C561        H573   1.082       .  S
C562        H574   1.082       .  S
C563        C564   1.374       .  A
C563        H575   1.082       .  S
C564        H576   1.082       .  S
C565        C566   1.374       .  A
C565        H577   1.082       .  S
C566        H578   1.082       .  S
C567        C689   1.486       .  S
C568        C714   1.488       .  S
C569        C703   1.481       .  S
C570        C675   1.488       .  S
N581        C586   1.354       .  A
N581        C585   1.352       .  A
N581        H613   1.040   1_565  S
N582        C589   1.350   1_565  A
N582        C590   1.350   1_565  A
N583        C588   1.351       .  A
N583        C587   1.353       .  A
N583        H614   1.039   1_565  S
N584        C591   1.351       .  A
N584        C592   1.351       .  A
C585        C593   1.388       .  A
C585        C601   1.415       .  A
C586        C602   1.412       .  A
C586        C594   1.385       .  A
C587        C595   1.387       .  A
C587        C604   1.414       .  A
C588        C603   1.412       .  A
C588        C596   1.387       .  A
C589        C601   1.412   1_545  A
C589        C597   1.387       .  A
C590        C604   1.411   1_545  A
C590        C598   1.386       .  A
C591        C599   1.385   1_565  A
C591        C602   1.411       .  A
C592        C600   1.387   1_565  A
C592        C603   1.412       .  A
C593        C594   1.376       .  A
C593        H605   1.082       .  S
C594        H606   1.082       .  S
C595        C596   1.376       .  A
C595        H607   1.082       .  S
C596        H608   1.083       .  S
C597        C598   1.373       .  A
C597        H609   1.082       .  S
C598        H610   1.082       .  S
C599        C600   1.374       .  A
C599        H611   1.082       .  S
C600        H612   1.082       .  S
C601        C633   1.488       .  S
C602        C658   1.491       .  S
C603        C644   1.486       .  S
C604        C619   1.488       .  S
C615        C616   1.404   1_545  A
C615        C620   1.401       .  A
C615        H622   1.084       .  S
C616        C617   1.409       .  A
C617        C618   1.403       .  A
C618        C619   1.402       .  A
C618        H623   1.084       .  S
C619        C620   1.407   1_565  A
C620        N621   1.432       .  S
N621        H625   1.045       .  S
N621        H626   1.046       .  S
C629        C630   1.403       .  A
C629        C634   1.404       .  A
C629        H636   1.084       .  S
C631        C632   1.409       .  A
C631        N638   1.438       .  S
C632        H637   1.084       .  S
C633        C634   1.411       .  A
C634        N635   1.438       .  S
N635        H639   1.046       .  S
N635        H640   1.046       .  S
N638        H641   1.046       .  S
N638        H642   1.046       .  S
C643        C648   1.399       .  A
C643        H650   1.084       .  S
C644        C645   1.411       .  A
C645        C646   1.404       .  A
C645        N652   1.437       .  S
C646        C647   1.403       .  A
C646        H651   1.084       .  S
C648        N649   1.432       .  S
N649        H653   1.046       .  S
N649        H654   1.045       .  S
N652        H655   1.046       .  S
N652        H656   1.045       .  S
C657        C662   1.400       .  A
C657        H664   1.084       .  S
C658        C659   1.419       .  A
C659        C660   1.407       .  A
C659        N666   1.439       .  S
C660        C661   1.404       .  A
C660        H665   1.084       .  S
C662        N663   1.432       .  S
N663        H667   1.046       .  S
N663        H668   1.044       .  S
N666        H669   1.043       .  S
N666        H670   1.046       .  S
C671        C672   1.401       .  A
C671        C676   1.396       .  A
C671        H678   1.084       .  S
C672       C1641   1.417       .  A
C673       C1640   1.414   1_455  A
C673        C674   1.407       .  A
C673        N680   1.439       .  S
C674       C1643   1.405   1_455  A
C674        H679   1.084       .  S
C675       C1642   1.405       .  A
C675        C676   1.412       .  A
C676        N677   1.433       .  S
N677        H681   1.043       .  S
N677        H682   1.046       .  S
N680        H683   1.046       .  S
N680        H684   1.046       .  S
C685        C686   1.401       .  A
C685        C690   1.401       .  A
C685        H692   1.084       .  S
C686       C1478   1.472       .  S
C686       C1655   1.413       .  A
C687       C1654   1.411   1_455  A
C687        C688   1.403       .  A
C687        N694   1.433       .  S
C688       C1657   1.402   1_455  A
C688        H693   1.084       .  S
C689       C1656   1.404       .  A
C689        C690   1.410       .  A
C690        N691   1.438       .  S
N691        H695   1.045       .  S
N691        H696   1.045       .  S
N694        H697   1.046       .  S
N694        H698   1.046       .  S
C699       C1668   1.399   1_455  A
C699        C704   1.400       .  A
C699        H706   1.076       .  S
C700       C1667   1.400       .  A
C700        C701   1.410       .  A
C701        C702   1.404       .  A
C701        N708   1.438       .  S
C702        C703   1.403       .  A
C702        H707   1.084       .  S
C703       C1672   1.408       .  A
C704       C1671   1.409   1_455  A
C704        N705   1.438       .  S
N705        H709   1.045       .  S
N705        H710   1.046       .  S
N708        H711   1.046       .  S
N708        H712   1.046       .  S
C713        C714   1.403       .  A
C713        C718   1.404       .  A
C713        H720   1.084       .  S
C714       C1683   1.419       .  A
C715       C1682   1.410       .  A
C715        C716   1.405       .  A
C715        N722   1.432       .  S
C716       C1685   1.405   1_455  A
C716        H721   1.084       .  S
C717       C1455   1.474       .  S
C717       C1684   1.402       .  A
C717        C718   1.409       .  A
C718        N719   1.438       .  S
N719        H723   1.045       .  S
N719        H724   1.046       .  S
N722        H725   1.046       .  S
N722        H726   1.046       .  S
O727       Zr739   2.432   1_556  S
O727        C729   1.286   1_655  A
O728        C729   1.285       .  A
C729       C1927   1.470       .  S
C732        C889   1.470       .  S
O733       Zr742   2.444   1_556  S
O733        C735   1.287       .  A
O734      Zr1733   2.427       .  S
O734        C735   1.287       .  A
O736       C1706   1.287       .  A
O737      Zr1734   2.413       .  S
O737       C1706   1.285       .  A
C738       O1704   1.287       .  A
C738       O1705   1.286       .  A
C738        C942   1.470       .  S
Zr739      O1713   2.375   1_554  S
Zr739      O1472   2.369       .  S
Zr739       O771   2.375   1_654  S
Zr739      O1708   2.437   1_554  S
O740      Zr1707   2.436   1_556  S
O740        H783   0.990       .  S
O741        H786   0.990       .  S
Zr742       O770   2.376   1_554  S
O743        H787   0.990       .  S
O745      Zr1707   2.372   1_556  S
O745      Zr1249   2.379       .  S
O746      Zr1465   2.372       .  S
O746       Zr766   2.384       .  S
O746        H773   0.968       .  S
O747       Zr759   2.446       .  S
O747        C749   1.288       .  A
O748      Zr1734   2.444   1_455  S
O748        C749   1.290       .  A
C749        C858   1.485       .  S
O750       C1720   1.291       .  A
O751      Zr1733   2.410       .  S
O751       C1720   1.284       .  A
C752       O1718   1.289   1_455  A
C752       O1719   1.284       .  A
C752       C1896   1.476       .  S
O753       Zr762   2.445       .  S
O753        C755   1.289       .  A
O754        C755   1.286       .  A
C755        C914   1.475       .  S
Zr759       O769   2.379       .  S
Zr762      O1494   2.366       .  S
Zr762      O1735   2.368       .  S
Zr762       O772   2.372       .  S
Zr762      O1731   2.437       .  S
O763      Zr1730   2.435   1_455  S
Zr765      O1702   2.441       .  S
Zr765      O1719   2.410   1_655  S
Zr765      O1229   2.378       .  S
Zr765       O768   2.385   1_655  S
Zr765      O1738   2.389       .  S
Zr766      O1705   2.422       .  S
Zr766      O1716   2.428       .  S
Zr766      O1251   2.385   1_565  S
Zr766      O1737   2.375       .  S
O767      Zr1730   2.370   1_455  S
O767      Zr1250   2.381   1_455  S
O767        H775   0.966       .  S
O768      Zr1488   2.377   1_456  S
O769      Zr1734   2.380   1_455  S
O770      Zr1733   2.394       .  S
O770        H774   0.964       .  S
O771        H776   0.965       .  S
N789        C794   1.352       .  A
N789        C793   1.353       .  A
N789        H821   1.040       .  S
N790        C797   1.350       .  A
N790        C798   1.351       .  A
N791        C796   1.351       .  A
N791        C795   1.350       .  A
N791        H822   1.041       .  S
N792        C799   1.350       .  A
N792        C800   1.349       .  A
C793        C801   1.388       .  A
C793        C809   1.417       .  A
C794        C810   1.415       .  A
C794        C802   1.387       .  A
C795        C803   1.387       .  A
C795        C812   1.410       .  A
C796        C811   1.411       .  A
C796        C804   1.387       .  A
C797        C809   1.413       .  A
C797        C805   1.387       .  A
C798        C812   1.408       .  A
C798        C806   1.384       .  A
C799        C807   1.386       .  A
C799        C810   1.412       .  A
C800        C808   1.386       .  A
C800        C811   1.411       .  A
C801        C802   1.378       .  A
C801        H813   1.082       .  S
C802        H814   1.083       .  S
C803        C804   1.377       .  A
C803        H815   1.082       .  S
C804        H816   1.082       .  S
C805        C806   1.373       .  A
C805        H817   1.082       .  S
C806        H818   1.082       .  S
C807        C808   1.375       .  A
C807        H819   1.082       .  S
C808        H820   1.082       .  S
C809        C931   1.493       .  S
C810        C956   1.489       .  S
C811        C945   1.483       .  S
C812        C917   1.485       .  S
N823        C828   1.352   1_545  A
N823        C827   1.352   1_545  A
N823        H855   1.041       .  S
N824        C831   1.353       .  A
N824        C832   1.352       .  A
N825        C830   1.353   1_545  A
N825        C829   1.354   1_545  A
N825        H856   1.040       .  S
N826        C833   1.350       .  A
N826        C834   1.348       .  A
C827        C835   1.386       .  A
C827        C843   1.411   1_565  A
C828        C844   1.411   1_565  A
C828        C836   1.386       .  A
C829        C837   1.387       .  A
C829        C846   1.415   1_565  A
C830        C845   1.415   1_565  A
C830        C838   1.388       .  A
C831        C843   1.415       .  A
C831        C839   1.386       .  A
C832        C846   1.414       .  A
C832        C840   1.385       .  A
C833        C841   1.386       .  A
C833        C844   1.409       .  A
C834        C842   1.387       .  A
C834        C845   1.411       .  A
C835        C836   1.376       .  A
C835        H847   1.082       .  S
C836        H848   1.082       .  S
C837        C838   1.377       .  A
C837        H849   1.082       .  S
C838        H850   1.083       .  S
C839        C840   1.375       .  A
C839        H851   1.082       .  S
C840        H852   1.082       .  S
C841        C842   1.375       .  A
C841        H853   1.082       .  S
C842        H854   1.082       .  S
C843        C875   1.496       .  S
C844        C900   1.486       .  S
C845        C886   1.483       .  S
C846        C861   1.495   1_545  S
C857        C858   1.405   1_545  A
C857        C862   1.405       .  A
C857        H864   1.084       .  S
C858        C859   1.412       .  A
C859        C860   1.409       .  A
C860        C861   1.404       .  A
C860        H865   1.084       .  S
C861        C862   1.408   1_565  A
C862        N863   1.432       .  S
N863        H867   1.046       .  S
N863        H868   1.045       .  S
C871        C872   1.404   1_565  A
C871        C876   1.403       .  A
C871        H878   1.084       .  S
C873        C874   1.404       .  A
C873        N880   1.438       .  S
C874        H879   1.084       .  S
C875        C876   1.408   1_545  A
C876        N877   1.432       .  S
N877        H881   1.045       .  S
N877        H882   1.046       .  S
N880        H883   1.045       .  S
N880        H884   1.046       .  S
C885        C890   1.401       .  A
C885        H892   1.084       .  S
C886        C887   1.408   1_545  A
C887        C888   1.402       .  A
C887        N894   1.432       .  S
C888        C889   1.403   1_565  A
C888        H893   1.084       .  S
C890        N891   1.432       .  S
N891        H895   1.046       .  S
N891        H896   1.045       .  S
N894        H897   1.046       .  S
N894        H898   1.045       .  S
C899        C904   1.400       .  A
C899        H906   1.084       .  S
C900        C901   1.406   1_545  A
C901        C902   1.402       .  A
C901        N908   1.432       .  S
C902        C903   1.402   1_565  A
C902        H907   1.084       .  S
C904        N905   1.433       .  S
N905        H909   1.046       .  S
N905        H910   1.044       .  S
N908        H911   1.046       .  S
N908        H912   1.045       .  S
C913        C914   1.403       .  A
C913        C918   1.398       .  A
C913        H920   1.084       .  S
C914       C1883   1.410       .  A
C915       C1882   1.411   1_455  A
C915        C916   1.404       .  A
C915        N922   1.433       .  S
C916       C1885   1.403   1_455  A
C916        H921   1.084       .  S
C917       C1884   1.403       .  A
C917        C918   1.413       .  A
C918        N919   1.433       .  S
N919        H923   1.044       .  S
N919        H924   1.046       .  S
N922        H925   1.046       .  S
N922        H926   1.046       .  S
C927        C928   1.404       .  A
C927        C932   1.406       .  A
C927        H934   1.084       .  S
C928       C1720   1.482       .  S
C928       C1897   1.413       .  A
C929       C1896   1.414       .  A
C929        C930   1.403       .  A
C929        N936   1.438       .  S
C930       C1899   1.403       .  A
C930        H935   1.084       .  S
C931       C1898   1.404       .  A
C931        C932   1.412       .  A
C932        N933   1.438       .  S
N933        H937   1.046       .  S
N933        H938   1.046       .  S
N936        H939   1.044       .  S
N936        H940   1.046       .  S
C941       C1910   1.400   1_455  A
C941        C946   1.399       .  A
C941        H948   1.080       .  S
C942       C1909   1.400       .  A
C942        C943   1.410       .  A
C943        C944   1.405       .  A
C943        N950   1.438       .  S
C944        C945   1.402       .  A
C944        H949   1.084       .  S
C945       C1914   1.409       .  A
C946       C1913   1.411   1_455  A
C946        N947   1.438       .  S
N947        H951   1.045       .  S
N947        H952   1.045       .  S
N950        H953   1.046       .  S
N950        H954   1.046       .  S
C955        C956   1.404       .  A
C955        C960   1.401       .  A
C955        H962   1.084       .  S
C956       C1925   1.420       .  A
C957       C1924   1.420       .  A
C957        C958   1.403       .  A
C957        N964   1.439       .  S
C958       C1927   1.403       .  A
C958        H963   1.084       .  S
C959       C1697   1.475       .  S
C959       C1926   1.403       .  A
C959        C960   1.405       .  A
C960        N961   1.432       .  S
N961        H965   1.045       .  S
N961        H966   1.046       .  S
N964        H967   1.043       .  S
N964        H968   1.046       .  S
O969       Zr981   2.446       .  S
O969        C971   1.288       .  A
O970      Zr1491   2.418       .  S
O970        C971   1.284       .  A
O972      Zr1226   2.441       .  S
O972       C1458   1.287       .  A
O973      Zr1492   2.418       .  S
O973       C1458   1.285       .  A
C974       O1456   1.287       .  A
C974       O1457   1.289       .  A
C974       C1131   1.483       .  S
O975       Zr984   2.456       .  S
O975        C977   1.290       .  A
O976        C977   1.287       .  A
C977       C1629   1.483       .  S
O978      Zr1223   2.426       .  S
C980       C1184   1.474       .  S
Zr981      O1220   2.438       .  S
Zr981      O1253   2.376       .  S
Zr981      O1013   2.366       .  S
Zr981      O1225   2.435       .  S
O982       H1025   0.990       .  S
O983      Zr1223   2.435   1_556  S
O983       H1266   0.990       .  S
O983       H1028   0.990   1_556  S
Zr984      O1214   2.440   1_565  S
Zr984      O1714   2.374       .  S
Zr984      O1471   2.375       .  S
Zr984      O1012   2.362   1_565  S
Zr984      O1256   2.379   1_565  S
Zr984      O1469   2.436       .  S
Zr984      O1228   2.435   1_565  S
O985      Zr1468   2.435       .  S
O985       H1268   0.990       .  S
O985       H1029   0.990       .  S
O986      Zr1226   2.436   1_545  S
O986       H1261   0.990       .  S
O987      Zr1468   2.376       .  S
O988      Zr1710   2.374       .  S
O988      Zr1008   2.389       .  S
O988       H1015   0.966       .  S
O989      Zr1001   2.476       .  S
O989        C991   1.293       .  A
O990        C991   1.286       .  A
C991       C1100   1.496       .  S
O992      Zr1246   2.435       .  S
O995      Zr1004   2.445       .  S
O995        C997   1.288       .  A
O996      Zr1492   2.427   1_545  S
O996        C997   1.287       .  A
C997       C1156   1.475       .  S
O998      Zr1243   2.427       .  S
O998       C1484   1.285       .  A
O999      Zr1491   2.416       .  S
O999       C1484   1.285       .  A
C1000      O1482   1.286       .  A
C1000      O1483   1.286       .  A
C1000      C1598   1.472       .  S
Zr1001     O1240   2.453   1_554  S
Zr1001     O1493   2.363       .  S
Zr1001     O1736   2.382   1_554  S
Zr1001     O1255   2.382   1_554  S
Zr1001     O1011   2.373       .  S
Zr1001     O1728   2.437       .  S
Zr1001     O1245   2.434       .  S
O1002     Zr1727   2.437   1_545  S
O1002      H1264   0.990       .  S
O1002      H1269   0.991       .  S
O1003     Zr1243   2.433       .  S
O1003      H1265   0.990       .  S
Zr1004     O1234   2.450   1_554  S
Zr1004     O1014   2.370       .  S
Zr1004     O1254   2.371   1_554  S
Zr1004     O1248   2.436       .  S
O1005      H1263   0.990       .  S
O1006     Zr1246   2.436       .  S
O1006      H1262   0.990       .  S
O1006      H1272   0.990       .  S
Zr1007     O1454   2.423       .  S
Zr1007     O1483   2.424       .  S
Zr1007     O1010   2.387   1_565  S
Zr1007     O1497   2.385       .  S
Zr1008     O1457   2.436       .  S
Zr1008     O1480   2.412       .  S
Zr1008     O1498   2.382       .  S
O1009     Zr1485   2.372   1_545  S
O1009      H1017   0.966       .  S
O1010     Zr1727   2.380   1_545  S
O1011     Zr1223   2.381       .  S
O1012     Zr1246   2.372       .  S
O1012      H1016   0.964       .  S
O1013     Zr1243   2.375       .  S
O1013     Zr1491   2.381       .  S
O1013      H1018   0.964       .  S
O1014     Zr1226   2.374   1_545  S
O1014     Zr1492   2.388   1_545  S
H1019      O1228   0.990       .  S
H1020      O1248   0.990       .  S
H1021      O1247   0.990       .  S
H1022      O1244   0.991   1_556  S
H1023      O1245   0.990       .  S
H1024      O1225   0.990       .  S
H1026      O1227   0.990   1_556  S
H1027      O1244   0.989   1_556  S
H1030      O1248   0.990   1_556  S
N1031      C1036   1.353   1_655  A
N1031      C1035   1.353   1_655  A
N1031      H1063   1.040       .  S
N1032      C1039   1.351       .  A
N1032      C1040   1.350       .  A
N1033      C1038   1.353   1_655  A
N1033      C1037   1.352   1_655  A
N1033      H1064   1.040       .  S
N1034      C1041   1.351   1_455  A
N1034      C1042   1.351   1_455  A
C1035      C1043   1.387       .  A
C1035      C1051   1.416   1_455  A
C1036      C1052   1.416       .  A
C1036      C1044   1.387       .  A
C1037      C1045   1.387       .  A
C1037      C1054   1.415   1_455  A
C1038      C1053   1.415       .  A
C1038      C1046   1.387       .  A
C1039      C1051   1.412       .  A
C1039      C1047   1.386       .  A
C1040      C1054   1.411       .  A
C1040      C1048   1.386       .  A
C1041      C1049   1.386       .  A
C1041      C1052   1.411   1_655  A
C1042      C1050   1.386       .  A
C1042      C1053   1.411   1_655  A
C1043      C1044   1.377       .  A
C1043      H1055   1.082       .  S
C1044      H1056   1.082       .  S
C1045      C1046   1.377       .  A
C1045      H1057   1.082       .  S
C1046      H1058   1.082       .  S
C1047      C1048   1.374       .  A
C1047      H1059   1.082       .  S
C1048      H1060   1.082       .  S
C1049      C1050   1.372       .  A
C1049      H1061   1.082       .  S
C1050      H1062   1.082       .  S
C1051      C1173   1.491       .  S
C1052      C1198   1.492       .  S
C1053      C1187   1.491       .  S
C1054      C1159   1.487       .  S
N1065      C1070   1.354       .  A
N1065      C1069   1.353       .  A
N1065      H1097   1.041       .  S
N1066      C1073   1.349       .  A
N1066      C1074   1.351       .  A
N1067      C1072   1.354       .  A
N1067      C1071   1.356       .  A
N1067      H1098   1.042       .  S
N1068      C1075   1.350       .  A
N1068      C1076   1.349       .  A
C1069      C1077   1.388       .  A
C1069      C1085   1.417       .  A
C1070      C1086   1.415       .  A
C1070      C1078   1.386       .  A
C1071      C1079   1.386       .  A
C1071      C1088   1.419       .  A
C1072      C1087   1.418       .  A
C1072      C1080   1.386       .  A
C1073      C1085   1.412       .  A
C1073      C1081   1.387       .  A
C1074      C1088   1.412       .  A
C1074      C1082   1.385       .  A
C1075      C1083   1.385       .  A
C1075      C1086   1.409       .  A
C1076      C1084   1.387       .  A
C1076      C1087   1.412       .  A
C1077      C1078   1.379       .  A
C1077      H1089   1.082       .  S
C1078      H1090   1.083       .  S
C1079      C1080   1.379       .  A
C1079      H1091   1.082       .  S
C1080      H1092   1.082       .  S
C1081      C1082   1.375       .  A
C1081      H1093   1.082       .  S
C1082      H1094   1.082       .  S
C1083      C1084   1.374       .  A
C1083      H1095   1.082       .  S
C1084      H1096   1.082       .  S
C1085      C1117   1.491       .  S
C1086      C1142   1.491       .  S
C1087      C1128   1.493       .  S
C1088      C1103   1.502       .  S
C1099      C1100   1.407       .  A
C1099      C1104   1.408       .  A
C1099      H1106   1.084       .  S
C1100      C1101   1.415       .  A
C1101      C1102   1.410       .  A
C1101      N1592   1.432       .  S
C1102      C1103   1.406       .  A
C1102      H1107   1.084       .  S
C1103      C1104   1.409       .  A
C1104      N1105   1.432       .  S
N1105      H1109   1.046       .  S
N1105      H1110   1.045       .  S
N1108      C1585   1.430       .  S
N1108      H1595   1.046       .  S
N1108      H1596   1.046       .  S
H1111      N1592   1.046       .  S
H1112      N1592   1.045       .  S
C1113      C1114   1.400       .  A
C1113      C1118   1.399       .  A
C1113      H1120   1.084       .  S
C1114      C1484   1.471       .  S
C1114      C1599   1.410       .  A
C1115      C1598   1.409   1_545  A
C1115      C1116   1.399       .  A
C1115      N1122   1.432       .  S
C1116      C1601   1.401       .  A
C1116      H1121   1.084       .  S
C1117      C1600   1.404       .  A
C1117      C1118   1.422       .  A
C1118      N1119   1.440       .  S
N1119      H1123   1.045       .  S
N1119      H1124   1.042       .  S
N1122      H1125   1.046       .  S
N1122      H1126   1.046       .  S
C1127      C1612   1.401   1_545  A
C1127      C1132   1.400       .  A
C1127      H1134   1.084       .  S
C1128      C1611   1.401       .  A
C1128      C1129   1.411       .  A
C1129      C1130   1.405       .  A
C1129      N1136   1.433       .  S
C1130      C1131   1.405       .  A
C1130      H1135   1.084       .  S
C1131      C1616   1.415       .  A
C1132      C1615   1.408   1_545  A
C1132      N1133   1.432       .  S
N1133      H1137   1.046       .  S
N1133      H1138   1.046       .  S
N1136      H1139   1.046       .  S
N1136      H1140   1.046       .  S
C1141      C1626   1.403   1_545  A
C1141      C1146   1.400       .  A
C1141      H1148   1.084       .  S
C1142      C1625   1.403       .  A
C1142      C1143   1.421       .  A
C1143      C1144   1.403       .  A
C1143      N1150   1.439       .  S
C1144      C1145   1.401       .  A
C1144      H1149   1.084       .  S
C1145      C1461   1.475       .  S
C1145      C1630   1.413       .  A
C1146      C1629   1.414   1_545  A
C1146      N1147   1.432       .  S
N1147      H1151   1.046       .  S
N1147      H1152   1.044       .  S
N1150      H1153   1.042       .  S
N1150      H1154   1.045       .  S
C1155      C1156   1.402       .  A
C1155      C1160   1.398       .  A
C1155      H1162   1.084       .  S
C1157      C1158   1.408       .  A
C1157      N1164   1.438       .  S
C1158      H1163   1.084       .  S
C1159      C1160   1.411       .  A
C1160      N1161   1.433       .  S
N1161      H1165   1.044       .  S
N1161      H1166   1.046       .  S
N1164      H1167   1.046       .  S
N1164      H1168   1.046       .  S
C1169      C1170   1.402       .  A
C1169      C1174   1.402       .  A
C1169      H1176   1.084       .  S
C1171      C1172   1.406       .  A
C1171      N1178   1.438       .  S
C1172      H1177   1.084       .  S
C1173      C1174   1.411       .  A
C1174      N1175   1.437       .  S
N1175      H1179   1.045       .  S
N1175      H1180   1.046       .  S
N1178      H1181   1.046       .  S
N1178      H1182   1.046       .  S
C1183      C1188   1.399       .  A
C1183      H1190   1.082       .  S
C1184      C1185   1.408   1_455  A
C1185      C1186   1.404       .  A
C1185      N1192   1.437       .  S
C1186      C1187   1.404   1_655  A
C1186      H1191   1.084       .  S
C1188      N1189   1.438       .  S
N1189      H1193   1.046       .  S
N1189      H1194   1.045       .  S
N1192      H1195   1.046       .  S
N1192      H1196   1.045       .  S
C1197      C1198   1.402   1_655  A
C1197      C1202   1.401       .  A
C1197      H1204   1.084       .  S
C1199      C1200   1.405       .  A
C1199      N1206   1.432       .  S
C1200      H1205   1.084       .  S
C1201      C1202   1.410   1_455  A
C1202      N1203   1.432       .  S
N1203      H1207   1.045       .  S
N1203      H1208   1.046       .  S
N1206      H1209   1.045       .  S
N1206      H1210   1.045       .  S
O1211     Zr1223   2.446   1_556  S
O1211      C1213   1.288       .  A
O1212     Zr1733   2.430       .  S
O1212      C1213   1.286       .  A
O1214      C1700   1.288   1_545  A
O1215     Zr1734   2.423       .  S
O1215      C1700   1.286       .  A
C1216      O1698   1.288       .  A
C1216      O1699   1.287       .  A
C1216      C1373   1.479       .  S
O1217     Zr1226   2.446   1_556  S
O1217      C1219   1.288       .  A
O1218      C1219   1.291       .  A
C1219      C1871   1.483   1_565  S
C1222      C1426   1.465       .  S
Zr1223     O1255   2.365   1_554  S
O1224      H1267   0.990   1_556  S
O1225      H1270   0.990       .  S
Zr1226     O1472   2.374       .  S
Zr1226     O1713   2.376   1_554  S
Zr1226     O1254   2.373   1_564  S
Zr1226     O1711   2.439       .  S
O1227     Zr1710   2.434       .  S
O1227      H1271   0.990   1_554  S
O1229     Zr1710   2.371   1_556  S
O1230     Zr1468   2.361       .  S
O1230     Zr1250   2.377       .  S
O1230      H1257   0.963       .  S
O1231     Zr1243   2.442       .  S
O1231      C1233   1.287       .  A
O1232      C1233   1.286       .  A
C1233      C1342   1.481       .  S
O1237     Zr1246   2.454       .  S
O1237      C1239   1.290       .  A
O1238     Zr1734   2.421   1_545  S
O1238      C1239   1.285       .  A
C1239      C1398   1.472       .  S
O1240      C1726   1.291       .  A
O1241     Zr1733   2.417       .  S
O1241      C1726   1.285       .  A
C1242      O1724   1.289       .  A
C1242      O1725   1.285   1_545  A
C1242      C1840   1.477       .  S
Zr1243     O1735   2.368       .  S
Zr1243     O1494   2.370       .  S
Zr1243     O1253   2.370       .  S
Zr1243     O1486   2.436       .  S
O1244     Zr1485   2.434   1_545  S
Zr1246     O1256   2.366       .  S
Zr1249     O1696   2.414       .  S
Zr1249     O1725   2.414       .  S
Zr1249     O1252   2.381   1_565  S
Zr1249     O1739   2.382       .  S
Zr1250     O1699   2.427       .  S
Zr1250     O1722   2.425       .  S
Zr1250     O1740   2.383       .  S
O1251     Zr1727   2.371   1_545  S
O1251      H1259   0.968       .  S
O1252     Zr1485   2.373   1_546  S
O1254      H1258   0.966       .  S
O1255     Zr1733   2.381       .  S
O1255      H1260   0.964       .  S
O1256     Zr1734   2.387   1_545  S
N1273      C1278   1.354       .  A
N1273      C1277   1.353       .  A
N1273      H1305   1.039   1_455  S
N1274      C1281   1.350   1_455  A
N1274      C1282   1.351   1_455  A
N1275      C1280   1.352       .  A
N1275      C1279   1.353       .  A
N1275      H1306   1.041   1_455  S
N1276      C1283   1.350       .  A
N1276      C1284   1.349       .  A
C1277      C1285   1.388       .  A
C1277      C1293   1.418       .  A
C1278      C1294   1.414       .  A
C1278      C1286   1.385       .  A
C1279      C1287   1.387       .  A
C1279      C1296   1.413   1_455  A
C1280      C1295   1.412       .  A
C1280      C1288   1.386       .  A
C1281      C1293   1.415   1_655  A
C1281      C1289   1.388       .  A
C1282      C1296   1.411       .  A
C1282      C1290   1.385       .  A
C1283      C1291   1.386   1_455  A
C1283      C1294   1.410       .  A
C1284      C1292   1.387   1_455  A
C1284      C1295   1.410       .  A
C1285      C1286   1.377       .  A
C1285      H1297   1.082       .  S
C1286      H1298   1.082       .  S
C1287      C1288   1.375       .  A
C1287      H1299   1.082       .  S
C1288      H1300   1.082       .  S
C1289      C1290   1.376       .  A
C1289      H1301   1.082       .  S
C1290      H1302   1.082       .  S
C1291      C1292   1.371       .  A
C1291      H1303   1.082       .  S
C1292      H1304   1.082       .  S
C1293      C1415   1.490       .  S
C1294      C1440   1.487       .  S
C1295      C1429   1.484       .  S
C1296      C1401   1.488       .  S
N1307      C1312   1.354       .  A
N1307      C1311   1.353       .  A
N1307      H1339   1.041       .  S
N1308      C1315   1.348       .  A
N1308      C1316   1.350       .  A
N1309      C1314   1.352       .  A
N1309      C1313   1.353       .  A
N1309      H1340   1.041       .  S
N1310      C1317   1.351       .  A
N1310      C1318   1.350       .  A
C1311      C1319   1.387       .  A
C1311      C1327   1.414       .  A
C1312      C1328   1.413       .  A
C1312      C1320   1.385       .  A
C1313      C1321   1.386       .  A
C1313      C1330   1.414       .  A
C1314      C1329   1.415       .  A
C1314      C1322   1.387       .  A
C1315      C1327   1.409       .  A
C1315      C1323   1.386       .  A
C1316      C1330   1.412       .  A
C1316      C1324   1.387       .  A
C1317      C1325   1.385       .  A
C1317      C1328   1.411       .  A
C1318      C1326   1.387       .  A
C1318      C1329   1.414       .  A
C1319      C1320   1.377       .  A
C1319      H1331   1.082       .  S
C1320      H1332   1.082       .  S
C1321      C1322   1.378       .  A
C1321      H1333   1.082       .  S
C1322      H1334   1.082       .  S
C1323      C1324   1.376       .  A
C1323      H1335   1.082       .  S
C1324      H1336   1.082       .  S
C1325      C1326   1.377       .  A
C1325      H1337   1.082       .  S
C1326      H1338   1.082       .  S
C1327      C1359   1.487       .  S
C1328      C1384   1.492       .  S
C1329      C1370   1.491       .  S
C1330      C1345   1.493       .  S
C1341      C1342   1.406       .  A
C1341      C1346   1.404       .  A
C1341      H1348   1.084       .  S
C1342      C1343   1.411       .  A
C1343      C1344   1.402       .  A
C1343      N1834   1.432       .  S
C1344      C1345   1.403       .  A
C1344      H1349   1.084       .  S
C1345      C1346   1.410       .  A
C1346      N1347   1.432       .  S
N1347      H1351   1.045       .  S
N1347      H1352   1.046       .  S
N1350      C1827   1.431       .  S
N1350      H1837   1.046       .  S
N1350      H1838   1.046       .  S
H1353      N1834   1.045       .  S
H1354      N1834   1.045       .  S
C1355      C1356   1.404       .  A
C1355      C1360   1.400       .  A
C1355      H1362   1.084       .  S
C1356      C1726   1.476       .  S
C1356      C1841   1.407       .  A
C1357      C1840   1.409       .  A
C1357      C1358   1.404       .  A
C1357      N1364   1.432       .  S
C1358      C1843   1.404       .  A
C1358      H1363   1.084       .  S
C1359      C1842   1.403       .  A
C1359      C1360   1.415       .  A
C1360      N1361   1.433       .  S
N1361      H1365   1.046       .  S
N1361      H1366   1.044       .  S
N1364      H1367   1.045       .  S
N1364      H1368   1.046       .  S
C1369      C1854   1.402   1_545  A
C1369      C1374   1.401       .  A
C1369      H1376   1.084       .  S
C1370      C1853   1.403       .  A
C1370      C1371   1.410       .  A
C1371      C1372   1.406       .  A
C1371      N1378   1.433       .  S
C1372      C1373   1.406       .  A
C1372      H1377   1.084       .  S
C1373      C1858   1.409       .  A
C1374      C1857   1.407   1_545  A
C1374      N1375   1.432       .  S
N1375      H1379   1.046       .  S
N1375      H1380   1.046       .  S
N1378      H1381   1.046       .  S
N1378      H1382   1.046       .  S
C1383      C1868   1.402       .  A
C1383      C1388   1.403       .  A
C1383      H1390   1.084       .  S
C1384      C1867   1.403       .  A
C1384      C1385   1.420       .  A
C1385      C1386   1.406       .  A
C1385      N1392   1.439       .  S
C1386      C1387   1.404       .  A
C1386      H1391   1.084       .  S
C1387      C1703   1.482       .  S
C1387      C1872   1.413       .  A
C1388      C1871   1.415       .  A
C1388      N1389   1.432       .  S
N1389      H1393   1.046       .  S
N1389      H1394   1.045       .  S
N1392      H1395   1.042       .  S
N1392      H1396   1.046       .  S
C1397      C1398   1.402       .  A
C1397      C1402   1.402       .  A
C1397      H1404   1.084       .  S
C1399      C1400   1.403       .  A
C1399      N1406   1.433       .  S
C1400      H1405   1.084       .  S
C1401      C1402   1.413       .  A
C1402      N1403   1.432       .  S
N1403      H1407   1.045       .  S
N1403      H1408   1.045       .  S
N1406      H1409   1.045       .  S
N1406      H1410   1.046       .  S
C1411      C1412   1.402   1_655  A
C1411      C1416   1.401       .  A
C1411      H1418   1.084       .  S
C1413      C1414   1.406       .  A
C1413      N1420   1.438       .  S
C1414      H1419   1.083       .  S
C1415      C1416   1.407   1_455  A
C1416      N1417   1.432       .  S
N1417      H1421   1.045       .  S
N1417      H1422   1.046       .  S
N1420      H1423   1.046       .  S
N1420      H1424   1.045       .  S
C1425      C1430   1.404       .  A
C1425      H1432   1.081       .  S
C1426      C1427   1.409   1_455  A
C1427      C1428   1.405       .  A
C1427      N1434   1.438       .  S
C1428      C1429   1.404   1_655  A
C1428      H1433   1.084       .  S
C1430      N1431   1.437       .  S
N1431      H1435   1.046       .  S
N1431      H1436   1.046       .  S
N1434      H1437   1.046       .  S
N1434      H1438   1.046       .  S
C1439      C1440   1.402   1_655  A
C1439      C1444   1.402       .  A
C1439      H1446   1.084       .  S
C1441      C1442   1.407       .  A
C1441      N1448   1.439       .  S
C1442      H1447   1.084       .  S
C1443      C1444   1.406   1_455  A
C1444      N1445   1.432       .  S
N1445      H1449   1.045       .  S
N1445      H1450   1.046       .  S
N1448      H1451   1.043       .  S
N1448      H1452   1.046       .  S
O1453     Zr1465   2.444       .  S
O1453      C1455   1.289       .  A
O1454      C1455   1.286       .  A
O1456     Zr1710   2.437       .  S
C1458      C1615   1.472       .  S
O1459     Zr1468   2.439       .  S
O1459      C1461   1.288       .  A
O1460      C1461   1.287       .  A
O1462     Zr1707   2.439       .  S
C1464      C1668   1.474       .  S
Zr1465     O1704   2.437       .  S
Zr1465     O1737   2.379       .  S
Zr1465     O1497   2.371       .  S
Zr1465     O1709   2.434       .  S
O1466      H1509   0.990       .  S
O1467     Zr1707   2.436       .  S
O1467      H1750   0.990   1_554  S
O1467      H1512   0.990       .  S
Zr1468     O1698   2.439       .  S
Zr1468     O1496   2.367       .  S
Zr1468     O1740   2.374       .  S
Zr1468     O1712   2.433       .  S
O1469      H1752   0.991       .  S
O1469      H1513   0.990       .  S
O1470     Zr1710   2.436       .  S
O1470      H1745   0.990       .  S
O1472     Zr1492   2.387       .  S
O1472      H1499   0.965       .  S
O1473     Zr1485   2.453       .  S
O1473      C1475   1.290       .  A
O1474      C1475   1.286       .  A
C1475      C1584   1.482       .  S
O1476     Zr1730   2.456       .  S
O1479     Zr1488   2.457       .  S
O1479      C1481   1.291       .  A
O1480      C1481   1.284       .  A
C1481      C1640   1.478       .  S
O1482     Zr1727   2.430       .  S
Zr1485     O1724   2.449   1_564  S
Zr1485     O1739   2.374   1_554  S
Zr1485     O1495   2.374       .  S
Zr1485     O1729   2.436       .  S
O1486      H1748   0.991       .  S
O1486      H1753   0.990       .  S
O1487     Zr1727   2.435       .  S
O1487      H1749   0.990       .  S
Zr1488     O1718   2.451   1_554  S
Zr1488     O1498   2.367       .  S
Zr1488     O1738   2.376   1_554  S
Zr1488     O1732   2.436       .  S
O1489      H1747   0.990       .  S
O1490     Zr1730   2.435       .  S
O1490      H1746   0.990       .  S
O1490      H1756   0.990       .  S
Zr1491     O1494   2.379       .  S
O1493      H1501   0.966       .  S
O1495     Zr1707   2.379       .  S
O1496     Zr1730   2.364       .  S
O1496      H1500   0.966       .  S
O1497     Zr1727   2.373       .  S
O1497      H1502   0.965       .  S
O1498     Zr1710   2.372       .  S
H1503      O1712   0.990       .  S
H1504      O1732   0.990   1_556  S
H1505      O1731   0.990       .  S
H1506      O1728   0.990       .  S
H1507      O1729   0.990       .  S
H1508      O1709   0.990       .  S
H1510      O1711   0.990       .  S
H1511      O1728   0.990       .  S
H1514      O1732   0.990       .  S
N1515      C1520   1.352   1_655  A
N1515      C1519   1.352   1_655  A
N1515      H1547   1.040       .  S
N1516      C1523   1.349       .  A
N1516      C1524   1.350       .  A
N1517      C1522   1.352       .  A
N1517      C1521   1.353       .  A
N1517      H1548   1.041       .  S
N1518      C1525   1.352       .  A
N1518      C1526   1.350       .  A
C1519      C1527   1.386       .  A
C1519      C1535   1.413   1_455  A
C1520      C1536   1.415       .  A
C1520      C1528   1.387       .  A
C1521      C1529   1.387   1_655  A
C1521      C1538   1.414       .  A
C1522      C1537   1.413       .  A
C1522      C1530   1.387   1_655  A
C1523      C1535   1.410       .  A
C1523      C1531   1.386       .  A
C1524      C1538   1.409       .  A
C1524      C1532   1.385       .  A
C1525      C1533   1.386       .  A
C1525      C1536   1.415   1_655  A
C1526      C1534   1.387       .  A
C1526      C1537   1.413       .  A
C1527      C1528   1.377       .  A
C1527      H1539   1.082       .  S
C1528      H1540   1.083       .  S
C1529      C1530   1.375       .  A
C1529      H1541   1.082       .  S
C1530      H1542   1.082       .  S
C1531      C1532   1.374       .  A
C1531      H1543   1.082       .  S
C1532      H1544   1.082       .  S
C1533      C1534   1.375       .  A
C1533      H1545   1.082       .  S
C1534      H1546   1.082       .  S
C1535      C1657   1.486       .  S
C1536      C1682   1.495       .  S
C1537      C1671   1.489       .  S
C1538      C1643   1.491       .  S
N1549      C1554   1.353   1_545  A
N1549      C1553   1.352   1_545  A
N1549      H1581   1.041       .  S
N1550      C1557   1.348       .  A
N1550      C1558   1.350       .  A
N1551      C1556   1.352   1_545  A
N1551      C1555   1.353   1_545  A
N1551      H1582   1.041       .  S
N1552      C1559   1.350   1_565  A
N1552      C1560   1.349   1_565  A
C1553      C1561   1.388       .  A
C1553      C1569   1.415   1_565  A
C1554      C1570   1.414       .  A
C1554      C1562   1.386       .  A
C1555      C1563   1.387       .  A
C1555      C1572   1.415   1_565  A
C1556      C1571   1.413       .  A
C1556      C1564   1.387       .  A
C1557      C1569   1.410       .  A
C1557      C1565   1.387       .  A
C1558      C1572   1.410       .  A
C1558      C1566   1.386       .  A
C1559      C1567   1.385       .  A
C1559      C1570   1.410   1_545  A
C1560      C1568   1.387       .  A
C1560      C1571   1.411   1_545  A
C1561      C1562   1.378       .  A
C1561      H1573   1.082       .  S
C1562      H1574   1.082       .  S
C1563      C1564   1.376       .  A
C1563      H1575   1.082       .  S
C1564      H1576   1.082       .  S
C1565      C1566   1.375       .  A
C1565      H1577   1.083       .  S
C1566      H1578   1.082       .  S
C1567      C1568   1.375       .  A
C1567      H1579   1.082       .  S
C1568      H1580   1.082       .  S
C1569      C1601   1.485       .  S
C1570      C1626   1.492       .  S
C1571      C1612   1.484       .  S
C1572      C1587   1.492       .  S
C1583      C1584   1.404   1_545  A
C1583      C1588   1.403       .  A
C1583      H1590   1.084       .  S
C1584      C1585   1.411       .  A
C1585      C1586   1.404       .  A
C1586      C1587   1.404   1_565  A
C1586      H1591   1.084       .  S
C1587      C1588   1.409       .  A
C1588      N1589   1.432       .  S
N1589      H1593   1.045       .  S
N1589      H1594   1.046       .  S
C1597      C1598   1.402       .  A
C1597      C1602   1.402       .  A
C1597      H1604   1.084       .  S
C1599      C1600   1.403       .  A
C1599      N1606   1.439       .  S
C1600      H1605   1.084       .  S
C1601      C1602   1.411   1_545  A
C1602      N1603   1.433       .  S
N1603      H1607   1.046       .  S
N1603      H1608   1.045       .  S
N1606      H1609   1.046       .  S
N1606      H1610   1.045       .  S
C1611      C1616   1.405       .  A
C1611      H1618   1.084       .  S
C1612      C1613   1.409       .  A
C1613      C1614   1.403       .  A
C1613      N1620   1.432       .  S
C1614      C1615   1.404       .  A
C1614      H1619   1.084       .  S
C1616      N1617   1.438       .  S
N1617      H1621   1.046       .  S
N1617      H1622   1.046       .  S
N1620      H1623   1.045       .  S
N1620      H1624   1.046       .  S
C1625      C1630   1.398       .  A
C1625      H1632   1.084       .  S
C1626      C1627   1.420       .  A
C1627      C1628   1.406       .  A
C1627      N1634   1.439       .  S
C1628      C1629   1.404       .  A
C1628      H1633   1.084       .  S
C1630      N1631   1.433       .  S
N1631      H1635   1.046       .  S
N1631      H1636   1.044       .  S
N1634      H1637   1.042       .  S
N1634      H1638   1.046       .  S
C1639      C1640   1.403       .  A
C1639      C1644   1.398       .  A
C1639      H1646   1.084       .  S
C1641      C1642   1.409       .  A
C1641      N1648   1.439       .  S
C1642      H1647   1.084       .  S
C1643      C1644   1.414       .  A
C1644      N1645   1.433       .  S
N1645      H1649   1.043       .  S
N1645      H1650   1.045       .  S
N1648      H1651   1.045       .  S
N1648      H1652   1.046       .  S
C1653      C1654   1.403       .  A
C1653      C1658   1.406       .  A
C1653      H1660   1.084       .  S
C1655      C1656   1.404       .  A
C1655      N1662   1.439       .  S
C1656      H1661   1.084       .  S
C1657      C1658   1.409       .  A
C1658      N1659   1.438       .  S
N1659      H1663   1.046       .  S
N1659      H1664   1.046       .  S
N1662      H1665   1.045       .  S
N1662      H1666   1.046       .  S
C1667      C1672   1.399       .  A
C1667      H1674   1.079       .  S
C1668      C1669   1.410       .  A
C1669      C1670   1.406       .  A
C1669      N1676   1.437       .  S
C1670      C1671   1.406       .  A
C1670      H1675   1.084       .  S
C1672      N1673   1.438       .  S
N1673      H1677   1.045       .  S
N1673      H1678   1.046       .  S
N1676      H1679   1.046       .  S
N1676      H1680   1.046       .  S
C1681      C1682   1.405   1_655  A
C1681      C1686   1.401       .  A
C1681      H1688   1.084       .  S
C1683      C1684   1.403       .  A
C1683      N1690   1.439       .  S
C1684      H1689   1.084       .  S
C1685      C1686   1.410       .  A
C1686      N1687   1.433       .  S
N1687      H1691   1.046       .  S
N1687      H1692   1.045       .  S
N1690      H1693   1.043       .  S
N1690      H1694   1.046       .  S
O1695     Zr1707   2.453   1_556  S
O1695      C1697   1.290       .  A
O1696      C1697   1.284       .  A
C1700      C1857   1.470       .  S
O1701     Zr1710   2.444   1_556  S
O1701      C1703   1.288       .  A
O1702      C1703   1.289       .  A
C1706      C1910   1.470       .  S
Zr1707     O1739   2.365   1_554  S
O1708      H1751   0.990   1_556  S
O1709      H1754   0.990       .  S
Zr1710     O1738   2.374   1_554  S
O1711      H1755   0.990   1_554  S
O1714     Zr1734   2.386       .  S
O1714      H1741   0.960       .  S
O1715     Zr1727   2.449   1_545  S
O1715      C1717   1.288   1_545  A
O1716      C1717   1.287       .  A
C1717      C1826   1.479   1_565  S
O1721     Zr1730   2.458       .  S
O1721      C1723   1.291       .  A
O1722      C1723   1.287       .  A
C1723      C1882   1.481       .  S
Zr1727     O1737   2.371       .  S
Zr1730     O1740   2.374       .  S
Zr1733     O1736   2.388       .  S
O1735      H1743   0.966       .  S
O1738      H1742   0.965       .  S
O1739      H1744   0.963       .  S
N1757      C1762   1.354       .  A
N1757      C1761   1.350       .  A
N1757      H1789   1.040   1_455  S
N1758      C1765   1.351   1_455  A
N1758      C1766   1.353   1_455  A
N1759      C1764   1.351   1_655  A
N1759      C1763   1.352   1_655  A
N1759      H1790   1.041       .  S
N1760      C1767   1.348   1_455  A
N1760      C1768   1.347   1_455  A
C1761      C1769   1.388       .  A
C1761      C1777   1.416       .  A
C1762      C1778   1.412       .  A
C1762      C1770   1.385       .  A
C1763      C1771   1.386       .  A
C1763      C1780   1.412   1_455  A
C1764      C1779   1.413   1_455  A
C1764      C1772   1.388       .  A
C1765      C1777   1.417   1_655  A
C1765      C1773   1.388       .  A
C1766      C1780   1.413       .  A
C1766      C1774   1.384       .  A
C1767      C1775   1.385       .  A
C1767      C1778   1.405   1_655  A
C1768      C1776   1.388       .  A
C1768      C1779   1.408       .  A
C1769      C1770   1.377       .  A
C1769      H1781   1.082       .  S
C1770      H1782   1.083       .  S
C1771      C1772   1.377       .  A
C1771      H1783   1.082       .  S
C1772      H1784   1.082       .  S
C1773      C1774   1.374       .  A
C1773      H1785   1.082       .  S
C1774      H1786   1.082       .  S
C1775      C1776   1.371       .  A
C1775      H1787   1.082       .  S
C1776      H1788   1.082       .  S
C1777      C1899   1.490       .  S
C1778      C1924   1.484       .  S
C1779      C1913   1.484       .  S
C1780      C1885   1.493       .  S
N1791      C1796   1.356   1_545  A
N1791      C1795   1.355   1_545  A
N1791      H1823   1.040       .  S
N1792      C1799   1.351       .  A
N1792      C1800   1.352       .  A
N1793      C1798   1.352   1_545  A
N1793      C1797   1.352   1_545  A
N1793      H1824   1.040       .  S
N1794      C1801   1.351       .  A
N1794      C1802   1.351       .  A
C1795      C1803   1.388       .  A
C1795      C1811   1.419   1_565  A
C1796      C1812   1.416   1_565  A
C1796      C1804   1.385       .  A
C1797      C1805   1.387       .  A
C1797      C1814   1.413   1_565  A
C1798      C1813   1.411       .  A
C1798      C1806   1.387       .  A
C1799      C1811   1.414       .  A
C1799      C1807   1.387       .  A
C1800      C1814   1.412       .  A
C1800      C1808   1.385       .  A
C1801      C1809   1.386       .  A
C1801      C1812   1.412       .  A
C1802      C1810   1.386       .  A
C1802      C1813   1.412   1_545  A
C1803      C1804   1.377       .  A
C1803      H1815   1.082       .  S
C1804      H1816   1.082       .  S
C1805      C1806   1.375       .  A
C1805      H1817   1.082       .  S
C1806      H1818   1.082       .  S
C1807      C1808   1.375       .  A
C1807      H1819   1.082       .  S
C1808      H1820   1.082       .  S
C1809      C1810   1.374       .  A
C1809      H1821   1.082       .  S
C1810      H1822   1.082       .  S
C1811      C1843   1.493       .  S
C1812      C1868   1.494       .  S
C1813      C1854   1.484       .  S
C1814      C1829   1.488       .  S
C1825      C1826   1.405       .  A
C1825      C1830   1.406       .  A
C1825      H1832   1.084       .  S
C1826      C1827   1.409   1_545  A
C1827      C1828   1.402       .  A
C1828      C1829   1.401   1_565  A
C1828      H1833   1.084       .  S
C1829      C1830   1.409       .  A
C1830      N1831   1.432       .  S
N1831      H1835   1.046       .  S
N1831      H1836   1.046       .  S
C1839      C1840   1.404   1_565  A
C1839      C1844   1.403       .  A
C1839      H1846   1.084       .  S
C1841      C1842   1.402       .  A
C1841      N1848   1.432       .  S
C1842      H1847   1.084       .  S
C1843      C1844   1.411   1_545  A
C1844      N1845   1.432       .  S
N1845      H1849   1.046       .  S
N1845      H1850   1.046       .  S
N1848      H1851   1.045       .  S
N1848      H1852   1.046       .  S
C1853      C1858   1.400       .  A
C1853      H1860   1.084       .  S
C1854      C1855   1.407       .  A
C1855      C1856   1.403       .  A
C1855      N1862   1.432       .  S
C1856      C1857   1.403       .  A
C1856      H1861   1.084       .  S
C1858      N1859   1.432       .  S
N1859      H1863   1.046       .  S
N1859      H1864   1.046       .  S
N1862      H1865   1.046       .  S
N1862      H1866   1.045       .  S
C1867      C1872   1.401       .  A
C1867      H1874   1.084       .  S
C1868      C1869   1.415   1_545  A
C1869      C1870   1.405       .  A
C1869      N1876   1.433       .  S
C1870      C1871   1.404   1_565  A
C1870      H1875   1.084       .  S
C1872      N1873   1.432       .  S
N1873      H1877   1.046       .  S
N1873      H1878   1.045       .  S
N1876      H1879   1.045       .  S
N1876      H1880   1.046       .  S
C1881      C1882   1.404       .  A
C1881      C1886   1.403       .  A
C1881      H1888   1.084       .  S
C1883      C1884   1.403       .  A
C1883      N1890   1.433       .  S
C1884      H1889   1.084       .  S
C1885      C1886   1.416       .  A
C1886      N1887   1.433       .  S
N1887      H1891   1.044       .  S
N1887      H1892   1.045       .  S
N1890      H1893   1.046       .  S
N1890      H1894   1.046       .  S
C1895      C1896   1.402   1_655  A
C1895      C1900   1.404       .  A
C1895      H1902   1.084       .  S
C1897      C1898   1.402       .  A
C1897      N1904   1.433       .  S
C1898      H1903   1.084       .  S
C1899      C1900   1.412   1_455  A
C1900      N1901   1.438       .  S
N1901      H1905   1.046       .  S
N1901      H1906   1.046       .  S
N1904      H1907   1.045       .  S
N1904      H1908   1.046       .  S
C1909      C1914   1.402       .  A
C1909      H1916   1.081       .  S
C1910      C1911   1.411       .  A
C1911      C1912   1.403       .  A
C1911      N1918   1.437       .  S
C1912      C1913   1.403       .  A
C1912      H1917   1.084       .  S
C1914      N1915   1.437       .  S
N1915      H1919   1.046       .  S
N1915      H1920   1.046       .  S
N1918      H1921   1.046       .  S
N1918      H1922   1.046       .  S
C1923      C1924   1.401   1_655  A
C1923      C1928   1.397       .  A
C1923      H1930   1.084       .  S
C1925      C1926   1.405       .  A
C1925      N1932   1.439       .  S
C1926      H1931   1.084       .  S
C1927      C1928   1.406   1_455  A
C1928      N1929   1.432       .  S
N1929      H1933   1.046       .  S
N1929      H1934   1.046       .  S
N1932      H1935   1.042       .  S
N1932      H1936   1.046       .  S
