geometry optimzed in LAMMPS
_audit_creation_date              2020-12-01 
_audit_creation_method            'lammps2cif' 
_symmetry_space_group_name_H-M    'P1' 
_symmetry_Int_Tables_number       1 
_symmetry_cell_setting            triclinic 
loop_ 
_symmetry_equiv_pos_as_xyz 
  x,y,z 
_cell_length_a                    34.66679503 
_cell_length_b                    33.948532408505024 
_cell_length_c                    22.37860484430696 
_cell_angle_alpha                 90.53550876786227 
_cell_angle_beta                  90.89075691281197 
_cell_angle_gamma                 90.50226971686068 
loop_ 
_atom_site_label 
_atom_site_type_symbol 
_atom_site_fract_x 
_atom_site_fract_y 
_atom_site_fract_z 
_atom_site_charge 
O1          O  0.48819801  0.78650377  0.93652661    -0.73600
O2          O  0.56344444  0.78631111  0.06365254    -0.73600
O3          O  0.48552852  0.78718312  0.05741438    -0.73700
O4          O  0.56586663  0.78535261  0.94172793    -0.73700
O5          O  0.56740389  0.85100402  0.94168729    -0.73700
O6          O  0.48598550  0.85285971  0.05709218    -0.73600
O7          O  0.56484238  0.85195646  0.06348628    -0.73600
O8          O  0.48869665  0.85222572  0.93671573    -0.73700
Ni9        Ni  0.52586771  0.78406721  0.99988775     1.25400
Ni10       Ni  0.52698901  0.85438819  0.99980437     1.25400
C11         C  0.47544420  0.81925538  0.91659432     0.88600
C12         C  0.57623450  0.81911321  0.08511696     0.88500
C13         C  0.47172279  0.82012135  0.07508804     0.88500
C14         C  0.57939080  0.81779191  0.92168494     0.88700
N15         N  0.68930403  0.81237400  0.73123534    -0.02600
C16         C  0.69854169  0.84302654  0.69554086    -0.00100
C17         C  0.72708526  0.83229923  0.65623993    -0.22900
C18         C  0.73555236  0.79368274  0.66761313    -0.23100
C19         C  0.71209565  0.78210939  0.71369587    -0.00200
H20         H  0.73883516  0.84992425  0.62069255     0.13600
H21         H  0.75622617  0.77574244  0.64423834     0.13700
N22         N  0.30702578  0.77029335  0.77997725    -0.02600
C23         C  0.33539903  0.77356649  0.82236945    -0.00100
C24         C  0.32893042  0.74769755  0.86856703    -0.22900
C25         C  0.29558322  0.72754223  0.85462293    -0.23100
C26         C  0.28283956  0.74172934  0.80031239    -0.00200
H27         H  0.34725432  0.74325441  0.90749594     0.13600
H28         H  0.28298648  0.70376618  0.87986981     0.13700
N29         N  0.68437836  0.81422853  0.28275471    -0.02600
C30         C  0.69536755  0.84398981  0.32038793    -0.00100
C31         C  0.72612738  0.83242344  0.35604043    -0.22900
C32         C  0.73426005  0.79427347  0.34018539    -0.23100
C33         C  0.70828067  0.78380373  0.29530502    -0.00200
H34         H  0.73977717  0.84915966  0.39205940     0.13600
H35         H  0.75634502  0.77591966  0.35986476     0.13700
N36         N  0.29673517  0.77988020  0.19349949    -0.02600
C37         C  0.32424542  0.78400563  0.15103443    -0.00100
C38         C  0.31586608  0.76034573  0.10190502    -0.22900
C39         C  0.28247826  0.74049305  0.11385904    -0.23100
C40         C  0.27146850  0.75240388  0.17017018    -0.00200
H41         H  0.33329579  0.75665679  0.06254874     0.13600
H42         H  0.26866558  0.71828142  0.08565425     0.13700
O43         O  0.60413661  0.06976761  0.57714989    -0.73600
O44         O  0.64166834  0.99996875  0.45558153    -0.73600
O45         O  0.60532760  0.06987941  0.45475402    -0.73700
O46         O  0.64114338  0.00046182  0.57617870    -0.73700
O47         O  0.58490231  0.96832675  0.57383556    -0.73700
O48         O  0.54881705  0.03815163  0.45080814    -0.73600
O49         O  0.58517395  0.96832795  0.45311783    -0.73600
O50         O  0.54774446  0.03767227  0.57467543    -0.73700
Ni51       Ni  0.62489312  0.03638375  0.51597618     1.25400
Ni52       Ni  0.56443312  0.00233137  0.51300853     1.25400
C53         C  0.57061849  0.06333442  0.59865166     0.88600
C54         C  0.61989302  0.97198337  0.43521243     0.88500
C55         C  0.57219077  0.06404780  0.43011926     0.88500
C56         C  0.61952807  0.97235535  0.59419847     0.88700
O57         O  0.26607700  0.96518053  0.56154036    -0.73600
O58         O  0.29595911  0.89628803  0.43149459    -0.73600
O59         O  0.26434270  0.96981631  0.44100167    -0.73700
O60         O  0.29820171  0.89197816  0.55457014    -0.73700
O61         O  0.23919076  0.86542441  0.55269789    -0.73700
O62         O  0.20558924  0.94295637  0.43968000    -0.73600
O63         O  0.23679075  0.87020514  0.42999818    -0.73600
O64         O  0.20761392  0.93757324  0.55947720    -0.73700
Ni65       Ni  0.28340549  0.93151190  0.49712559     1.25400
Ni66       Ni  0.22044852  0.90281204  0.49527339     1.25400
C67         C  0.23132418  0.96342730  0.58065225     0.88600
C68         C  0.27060898  0.87277956  0.40791174     0.88500
C69         C  0.22889221  0.97033693  0.42365162     0.88500
C70         C  0.27365267  0.86701700  0.57444682     0.88700
O71         O  0.28400098  0.15361084  0.07192371    -0.73600
O72         O  0.36284823  0.14441240  0.95424446    -0.73600
O73         O  0.28456158  0.14786831  0.95068809    -0.73700
O74         O  0.36185699  0.14984825  0.07432710    -0.73700
O75         O  0.35810857  0.08444757  0.08064494    -0.73700
O76         O  0.28123916  0.08246382  0.95561522    -0.73600
O77         O  0.36018962  0.07900305  0.96097045    -0.73600
O78         O  0.27976406  0.08823848  0.07700549    -0.73700
Ni79       Ni  0.32322230  0.15121562  0.01248434     1.25400
Ni80       Ni  0.31945651  0.08119376  0.01865465     1.25400
C81         C  0.26931271  0.12252236  0.09474494     0.88600
C82         C  0.37597319  0.11036817  0.94054084     0.88500
C83         C  0.27027836  0.11490858  0.93227068     0.88500
C84         C  0.37377342  0.11734473  0.09626224     0.88700
N85         N  0.15957742  0.11865277  0.73830262    -0.02600
C86         C  0.15673851  0.09285334  0.69167570    -0.00100
C87         C  0.12869371  0.10480922  0.65144301    -0.22900
C88         C  0.11374207  0.13914943  0.67388383    -0.23100
C89         C  0.13303200  0.14699829  0.72726411    -0.00200
H90         H  0.12023902  0.09022529  0.61000570     0.13600
H91         H  0.09045544  0.15597295  0.65431110     0.13700
N92         N  0.55840470  0.12821979  0.83328824    -0.02600
C93         C  0.53141874  0.12774294  0.87687301    -0.00100
C94         C  0.54693072  0.14244645  0.92985495    -0.22900
C95         C  0.58472689  0.15184960  0.91921959    -0.23100
C96         C  0.59130680  0.14243394  0.86005094    -0.00200
H97         H  0.53228472  0.14563634  0.97194545     0.13600
H98         H  0.60559646  0.16308267  0.95173231     0.13700
N99         N  0.55685775  0.13675002  0.19970662    -0.02600
C100        C  0.52506413  0.14341942  0.16501180    -0.00100
C101        C  0.53471925  0.16234802  0.11298968    -0.22900
C102        C  0.57380298  0.16748318  0.11473805    -0.23100
C103        C  0.58675957  0.15168889  0.16803263    -0.00200
H104        H  0.51534218  0.17051100  0.07687820     0.13600
H105        H  0.59111528  0.18028078  0.07994307     0.16100
N106        N  0.16439272  0.13870616  0.29059358    -0.02600
C107        C  0.15984815  0.11242835  0.33562839    -0.00100
C108        C  0.13369560  0.12649484  0.37637071    -0.22900
C109        C  0.12143176  0.16228577  0.35581703    -0.23100
C110        C  0.14038913  0.16928481  0.30289114    -0.00200
H111        H  0.12409924  0.11193408  0.41638806     0.13600
H112        H  0.09932434  0.18022242  0.37576941     0.13700
O113        O  0.94045917  0.57709737  0.54238081    -0.73600
O114        O  0.85727641  0.57147241  0.42677613    -0.73600
O115        O  0.93546860  0.57668993  0.42189351    -0.73700
O116        O  0.86210913  0.57211893  0.54921009    -0.73700
O117        O  0.85915220  0.63766893  0.55048748    -0.73700
O118        O  0.93065092  0.64212272  0.42252531    -0.73600
O119        O  0.85352954  0.63697737  0.42816903    -0.73600
O120        O  0.93669579  0.64253015  0.54264517    -0.73700
Ni121      Ni  0.89868850  0.57193601  0.48514741     1.25400
Ni122      Ni  0.89463137  0.64205508  0.48609101     1.25400
C123        C  0.95321077  0.61090793  0.55998943     0.88600
C124        C  0.84285206  0.60345452  0.40656163     0.88500
C125        C  0.94558198  0.61050066  0.40202854     0.88500
C126        C  0.84957584  0.60427763  0.57214049     0.88700
O127        O  0.82754810  0.24698473  0.56451287    -0.73600
O128        O  0.88398803  0.29805590  0.43974732    -0.73600
O129        O  0.82601387  0.24438550  0.44368464    -0.73700
O130        O  0.88501622  0.30074661  0.56246612    -0.73700
O131        O  0.92807423  0.25222733  0.56294931    -0.73700
O132        O  0.86890731  0.19593532  0.44447953    -0.73600
O133        O  0.92696256  0.24957248  0.44234224    -0.73600
O134        O  0.87054789  0.19864370  0.56537614    -0.73700
Ni135      Ni  0.85415157  0.27435675  0.50241170     1.25400
Ni136      Ni  0.90014339  0.22241003  0.50374927     1.25400
C137        C  0.84024465  0.21468197  0.58629157     0.88600
C138        C  0.91471475  0.28186540  0.42022949     0.88500
C139        C  0.83776389  0.21111375  0.42405649     0.88500
C140        C  0.91553673  0.28486310  0.58379673     0.88700
O141        O  0.05191303  0.46534484  0.04119285    -0.73600
O142        O  0.07093248  0.54105883  0.91790565    -0.73600
O143        O  0.05464353  0.46227056  0.92087614    -0.73700
O144        O  0.06790874  0.54373748  0.03934699    -0.73700
O145        O  0.13068608  0.53091887  0.04545681    -0.73700
O146        O  0.11726453  0.44830912  0.92800323    -0.73600
O147        O  0.13354872  0.52751541  0.92324747    -0.73600
O148        O  0.11465351  0.45231960  0.04767178    -0.73700
Ni149      Ni  0.05920750  0.50373278  0.97949346     1.25400
Ni150      Ni  0.12634225  0.48959066  0.98608391     1.25400
C151        C  0.07990227  0.44558784  0.06379258     0.88600
C152        C  0.10543369  0.54668462  0.89974087     0.88500
C153        C  0.08328153  0.44042119  0.90759788     0.88500
C154        C  0.10124442  0.55023441  0.06312579     0.88700
N155        N  0.13047603  0.64024321  0.68926651    -0.02600
C156        C  0.10669160  0.63499058  0.64088898    -0.00100
C157        C  0.12320382  0.65002806  0.59020399    -0.22900
C158        C  0.15820008  0.66559235  0.60741199    -0.23100
C159        C  0.16217716  0.65943535  0.66826583    -0.00200
H160        H  0.10999999  0.65182928  0.54616670     0.13600
H161        H  0.17740077  0.68205034  0.57907518     0.13700
N162        N  0.02860582  0.29106869  0.81923039    -0.02600
C163        C  0.99013190  0.28935693  0.80591355    -0.00100
C164        C  0.97397488  0.25611809  0.83076587    -0.22900
C165        C  0.00370186  0.23460849  0.85391482    -0.23100
C166        C  0.03752147  0.25537303  0.84334640    -0.00200
H167        H  0.94508725  0.24472752  0.82240350     0.13600
H168        H  0.00089367  0.20398615  0.86592085     0.13700
N169        N  0.03256866  0.30849711  0.19542436    -0.02600
C170        C  0.99413951  0.30209936  0.20395791    -0.00100
C171        C  0.98241541  0.26784714  0.17511704    -0.22900
C172        C  0.01505422  0.24982439  0.15576195    -0.23100
C173        C  0.04600757  0.27376069  0.17269517    -0.00200
H174        H  0.95474191  0.25318843  0.17950875     0.13600
H175        H  0.01601867  0.21908924  0.14290726     0.13700
N176        N  0.11349006  0.65436049  0.26766732    -0.02600
C177        C  0.08655036  0.65568052  0.31090786    -0.00100
C178        C  0.09828558  0.68027253  0.35720134    -0.22900
C179        C  0.13375517  0.69486774  0.34226059    -0.23100
C180        C  0.14251738  0.67885816  0.28706476    -0.00200
H181        H  0.08233019  0.68739504  0.39700798     0.13600
H182        H  0.15061005  0.71632048  0.36774647     0.13700
O183        O  0.78934935  0.40936118  0.92791298    -0.73600
O184        O  0.80050251  0.33691970  0.05504814    -0.73600
O185        O  0.77985733  0.41272046  0.04669050    -0.73700
O186        O  0.80981253  0.33353832  0.93700067    -0.73700
O187        O  0.87191660  0.35035028  0.94843334    -0.73700
O188        O  0.84116702  0.43153527  0.05983585    -0.73600
O189        O  0.86256249  0.35364176  0.06734554    -0.73600
O190        O  0.85071067  0.42838877  0.93954318    -0.73700
Ni191      Ni  0.79287146  0.37258876  0.99122491     1.25400
Ni192      Ni  0.85894777  0.39182696  0.00421917     1.25400
C193        C  0.81765243  0.43145497  0.91330871     0.88600
C194        C  0.83335740  0.33217555  0.08057333     0.88500
C195        C  0.80516232  0.43542636  0.07125770     0.88500
C196        C  0.84540373  0.32785740  0.92605524     0.88700
N197        N  0.77928777  0.17102268  0.81078547    -0.02600
C198        C  0.75334467  0.14467926  0.83208782    -0.00100
C199        C  0.76450170  0.13398003  0.88925185    -0.22900
C200        C  0.79678622  0.15581001  0.90448519    -0.23100
C201        C  0.80524079  0.17894979  0.85570459    -0.00200
H202        H  0.74739754  0.11721138  0.92029296     0.13600
H203        H  0.80919011  0.15775868  0.94895193     0.13700
N204        N  0.75384663  0.59620475  0.77977262    -0.02600
C205        C  0.73009228  0.62426427  0.80212756    -0.00100
C206        C  0.71287298  0.61106027  0.85361709    -0.22900
C207        C  0.72650614  0.57383466  0.86357094    -0.23100
C208        C  0.75167078  0.56557051  0.81800897    -0.00200
H209        H  0.69323696  0.62716803  0.88172098     0.13600
H210        H  0.72031672  0.55551707  0.90163522     0.13700
N211        N  0.73855699  0.60068289  0.20350875    -0.02600
C212        C  0.71354691  0.62938321  0.18695372    -0.00100
C213        C  0.69097239  0.61692350  0.13884704    -0.22900
C214        C  0.70242272  0.57932519  0.12513754    -0.23100
C215        C  0.73168880  0.57022438  0.16515257    -0.00200
H216        H  0.66888522  0.63355100  0.11581709     0.13600
H217        H  0.69174469  0.56119010  0.08833312     0.13700
N218        N  0.77534466  0.17069763  0.19867297    -0.02600
C219        C  0.75093716  0.14393158  0.17330877    -0.00100
C220        C  0.76281795  0.13589736  0.11569710    -0.22900
C221        C  0.79433427  0.15974863  0.10517517    -0.23100
C222        C  0.80104481  0.18152996  0.15684635    -0.00200
H223        H  0.74647535  0.11985736  0.08163648     0.13600
H224        H  0.80696708  0.16476297  0.06198079     0.13700
C225        C  0.81003623  0.46312083  0.86967918    -0.04600
C226        C  0.82856422  0.49984532  0.87727198    -0.32100
C227        C  0.81236112  0.53385262  0.85260974     0.37200
C228        C  0.77731027  0.53121334  0.82022340    -0.05000
C229        C  0.76175243  0.49408781  0.80598116    -0.32000
C230        C  0.77817415  0.46002948  0.82975689     0.37100
H231        H  0.85317591  0.50291834  0.90743814     0.17500
O232        O  0.82807613  0.56995345  0.86715849    -0.59500
H233        H  0.73480965  0.49169437  0.78095825     0.17500
O234        O  0.76136825  0.42408736  0.81700382    -0.59600
H235        H  0.73682391  0.42369534  0.83921363     0.44500
H236        H  0.84440316  0.57694063  0.83277413     0.44400
C237        C  0.85412533  0.29257608  0.89056423    -0.04600
C238        C  0.87004755  0.26017563  0.92016965    -0.32100
C239        C  0.85822630  0.22159636  0.90452225     0.37200
C240        C  0.82988228  0.21555117  0.85902960    -0.05000
C241        C  0.81985552  0.24796015  0.82337248    -0.32000
C242        C  0.83224578  0.28602487  0.83826721     0.37100
H243        H  0.88779457  0.26481369  0.95993047     0.17500
O244        O  0.87297177  0.19038506  0.93576824    -0.59500
H245        H  0.79877910  0.24534798  0.78792245     0.17500
O246        O  0.81859626  0.31731961  0.80599846    -0.59600
H247        H  0.79129006  0.32041356  0.81768306     0.44500
H248        H  0.86524434  0.19451107  0.97784275     0.44400
C249        C  0.79140189  0.46766601  0.11033811    -0.04600
C250        C  0.81086396  0.50415386  0.11184670    -0.32100
C251        C  0.79309932  0.53767738  0.13569855     0.37200
C252        C  0.75553966  0.53479257  0.15828975    -0.05000
C253        C  0.73768316  0.49783247  0.16198389    -0.32000
C254        C  0.75535514  0.46434259  0.13856942     0.37100
H255        H  0.83844798  0.50741360  0.09025292     0.17500
O256        O  0.81076964  0.57374968  0.13051481    -0.59500
H257        H  0.70884141  0.49533050  0.17966280     0.17500
O258        O  0.73651890  0.42868680  0.14152443    -0.59600
H259        H  0.71546377  0.42980334  0.11106120     0.44500
H260        H  0.82816189  0.57613416  0.16598325     0.44400
C261        C  0.83699079  0.29859504  0.12112674    -0.04600
C262        C  0.86125025  0.26751917  0.10483800    -0.32100
C263        C  0.85271593  0.22881976  0.12223762     0.37200
C264        C  0.81974616  0.22116205  0.15648742    -0.05000
C265        C  0.79934833  0.25323354  0.17995966    -0.32000
C266        C  0.80768472  0.29168917  0.16240220     0.37100
H267        H  0.88402324  0.27244938  0.07308115     0.17500
O268        O  0.87442267  0.19843537  0.10072297    -0.59500
H269        H  0.77385606  0.24853625  0.20602456     0.17500
O270        O  0.78458786  0.32194283  0.18101461    -0.59600
H271        H  0.76027687  0.31912018  0.15731740     0.44500
H272        H  0.89520995  0.19482485  0.13108159     0.44400
C273        C  0.11292424  0.57468294  0.84973675    -0.04600
C274        C  0.14837107  0.57338123  0.82002879    -0.32100
C275        C  0.15507939  0.59625822  0.76918687     0.37200
C276        C  0.12618658  0.62132928  0.74669511    -0.05000
C277        C  0.09163216  0.62451295  0.77826675    -0.32000
C278        C  0.08475571  0.60145320  0.82899820     0.37100
H279        H  0.17063706  0.55332659  0.83473097     0.17500
O280        O  0.18891891  0.59159090  0.73910181    -0.59500
H281        H  0.06950487  0.64444830  0.76291299     0.17500
O282        O  0.05042739  0.60553768  0.85797471    -0.59600
H283        H  0.03135198  0.59007542  0.83375731     0.44500
H284        H  0.20900781  0.60469798  0.76451619     0.44400
C285        C  0.07597729  0.40327803  0.87394050    -0.04600
C286        C  0.09253423  0.36847481  0.89509883    -0.32100
C287        C  0.07925944  0.33137948  0.87510337     0.37200
C288        C  0.04912858  0.32828176  0.83144337    -0.05000
C289        C  0.03536959  0.36384695  0.80670627    -0.32000
C290        C  0.04789506  0.40075340  0.82826603     0.37100
H291        H  0.11377763  0.36984259  0.93113036     0.17500
O292        O  0.09353175  0.29882030  0.90324676    -0.59500
H293        H  0.01307211  0.36385836  0.77274824     0.17500
O294        O  0.03184431  0.43426051  0.80519475    -0.59600
H295        H  0.00627202  0.43647758  0.82419339     0.44500
H296        H  0.11963955  0.29499559  0.88673217     0.44400
C297        C  0.11177301  0.62992360  0.21454381    -0.04600
C298        C  0.08004552  0.63234825  0.17518902    -0.32100
C299        C  0.07659815  0.60733437  0.12515265     0.37200
C300        C  0.10543781  0.57925294  0.11328015    -0.05000
C301        C  0.13756255  0.57737500  0.15243155    -0.32000
C302        C  0.14062975  0.60213204  0.20290054     0.37100
H303        H  0.05779015  0.65381382  0.18343513     0.17500
O304        O  0.04519334  0.61112739  0.08767740    -0.59500
H305        H  0.15982132  0.55574064  0.14509120     0.17500
O306        O  0.17129260  0.59803502  0.24169824    -0.59600
H307        H  0.16165759  0.58090163  0.27399151     0.44500
H308        H  0.02391969  0.59682122  0.10749845     0.44400
C309        C  0.04735834  0.34644746  0.17420107    -0.04600
C310        C  0.08482327  0.34916630  0.15041420    -0.32100
C311        C  0.09664636  0.38185041  0.11686158     0.37200
C312        C  0.07129216  0.41352520  0.10700311    -0.05000
C313        C  0.03544782  0.41271055  0.13504082    -0.32000
C314        C  0.02336993  0.38008541  0.16814428     0.37100
H315        H  0.10458530  0.32488246  0.15471047     0.17500
O316        O  0.13239924  0.38140469  0.09146528    -0.59500
H317        H  0.01574154  0.43705923  0.12951988     0.17500
O318        O  0.98738404  0.38139267  0.19248086    -0.59600
H319        H  0.96908546  0.37701053  0.15848176     0.44500
H320        H  0.12858995  0.36769262  0.05245620     0.44400
C321        C  0.97301762  0.30372406  0.74881903    -0.04600
C322        C  0.93296555  0.30952575  0.74477777    -0.32100
C323        C  0.91388411  0.30869098  0.68917586     0.37200
C324        C  0.93499034  0.30169504  0.63695625    -0.05000
C325        C  0.97527645  0.30102549  0.64028013    -0.32000
C326        C  0.99443626  0.30242564  0.69558981     0.37100
H327        H  0.91602790  0.31080337  0.78503954     0.17500
O328        O  0.87432195  0.30879231  0.68728704    -0.59500
H329        H  0.99178291  0.29585250  0.60025226     0.17500
O330        O  0.03358503  0.29740257  0.69699006    -0.59600
H331        H  0.04468688  0.32345175  0.68672142     0.44500
H332        H  0.86724123  0.33682523  0.68242210     0.44400
C333        C  0.82087508  0.19684155  0.63835064    -0.04600
C334        C  0.78375655  0.20921320  0.65441069    -0.32100
C335        C  0.76771487  0.19796801  0.70899202     0.37200
C336        C  0.78913006  0.17443916  0.74865373    -0.05000
C337        C  0.82451401  0.15921274  0.73013176    -0.32000
C338        C  0.84053040  0.17021956  0.67589660     0.37100
H339        H  0.76779525  0.22912524  0.62591528     0.17500
O340        O  0.73256813  0.21249837  0.72499384    -0.59500
H341        H  0.84103805  0.14067347  0.76002297     0.17500
O342        O  0.87646372  0.15654837  0.66205103    -0.59600
H343        H  0.89489544  0.17495815  0.68237033     0.44500
H344        H  0.73720349  0.24064418  0.73528006     0.44400
C345        C  0.93578824  0.29898217  0.36949604    -0.04600
C346        C  0.91541592  0.31034209  0.31783080    -0.32100
C347        C  0.93480731  0.31626011  0.26393241     0.37200
C348        C  0.97513333  0.31138730  0.26156104    -0.05000
C349        C  0.99576143  0.30502615  0.31503565    -0.32000
C350        C  0.97638326  0.29805252  0.36841642     0.37100
H351        H  0.88417724  0.31122771  0.31783218     0.17500
O352        O  0.91382696  0.32301156  0.21264084    -0.59500
H353        H  0.02669024  0.30136852  0.31452947     0.17500
O354        O  0.99726055  0.28855956  0.41879074    -0.59600
H355        H  0.00475155  0.26065504  0.41306829     0.44500
H356        H  0.90717955  0.35134769  0.21434070     0.44400
C357        C  0.81622402  0.19189243  0.37416467    -0.04600
C358        C  0.78058247  0.20760352  0.35595032    -0.32100
C359        C  0.76437411  0.19792640  0.30017341     0.37200
C360        C  0.78428122  0.17276394  0.26145398    -0.05000
C361        C  0.81707258  0.15312471  0.28266857    -0.32000
C362        C  0.83303844  0.16223069  0.33881146     0.37100
H363        H  0.76635487  0.22944666  0.38325669     0.17500
O364        O  0.73117058  0.21611862  0.28209891    -0.59500
H365        H  0.83180327  0.13263323  0.25367103     0.17500
O366        O  0.86624163  0.14375548  0.35676011    -0.59600
H367        H  0.88738176  0.15742746  0.33566142     0.44500
H368        H  0.71011331  0.20195472  0.30265183     0.44400
C369        C  0.98926682  0.61376893  0.59679715    -0.04600
C370        C  0.01520572  0.58203927  0.59717254    -0.32100
C371        C  0.05319375  0.58709815  0.61857709     0.37200
C372        C  0.06549842  0.62394773  0.64100920    -0.05000
C373        C  0.03871475  0.65437372  0.64629121    -0.32000
C374        C  0.00093637  0.64967521  0.62424943     0.37100
H375        H  0.00710496  0.55415155  0.57645063     0.17500
O376        O  0.07904339  0.55709511  0.61195109    -0.59500
H377        H  0.04808570  0.68308322  0.66275658     0.17500
O378        O  0.97632500  0.68105121  0.62713965    -0.59600
H379        H  0.98436428  0.69895432  0.59473962     0.44500
H380        H  0.07952705  0.54354580  0.65101877     0.44400
C381        C  0.97726374  0.61415001  0.35885061    -0.04600
C382        C  0.00869476  0.58835467  0.36256299    -0.32100
C383        C  0.04450150  0.59921726  0.33908224     0.37200
C384        C  0.04869014  0.63572136  0.31068249    -0.05000
C385        C  0.01604219  0.65869200  0.29969699    -0.32000
C386        C  0.98036837  0.64799023  0.32308678     0.37100
H387        H  0.00680847  0.56195437  0.38922975     0.17500
O388        O  0.07604566  0.57598500  0.34938941    -0.59500
H389        H  0.01902646  0.68695890  0.27804284     0.17500
O390        O  0.94973625  0.67288684  0.31581110    -0.59600
H391        H  0.93533882  0.66253346  0.28030895     0.44500
H392        H  0.08585375  0.58379372  0.38970002     0.44400
C393        C  0.82443629  0.60296401  0.62519096    -0.04600
C394        C  0.79839739  0.57150784  0.63205938    -0.32100
C395        C  0.77477711  0.56947415  0.68220718     0.37200
C396        C  0.77770213  0.59844916  0.72759095    -0.05000
C397        C  0.80374489  0.62985865  0.72096643    -0.32000
C398        C  0.82677728  0.63247110  0.67011197     0.37100
H399        H  0.79584061  0.54877598  0.59788403     0.17500
O400        O  0.74827810  0.53944785  0.68587488    -0.59500
H401        H  0.80641900  0.65222180  0.75564858     0.17500
O402        O  0.85289908  0.66289193  0.66624227    -0.59600
H403        H  0.83758445  0.68596295  0.65348644     0.44500
H404        H  0.72381001  0.55047159  0.67006331     0.44400
C405        C  0.76532355  0.60108222  0.25369134    -0.04600
C406        C  0.76478607  0.57007409  0.29486300    -0.32100
C407        C  0.78982073  0.57016285  0.34478963     0.37200
C408        C  0.81524218  0.60221321  0.35518310    -0.05000
C409        C  0.81608326  0.63291323  0.31346962    -0.32000
C410        C  0.79180830  0.63228982  0.26273008     0.37100
H411        H  0.74459812  0.54582565  0.28840029     0.17500
O412        O  0.78831400  0.53943411  0.38405836    -0.59500
H413        H  0.83649847  0.65705480  0.31925101     0.17500
O414        O  0.79564187  0.66099814  0.22039414    -0.59600
H415        H  0.79012598  0.68627407  0.24103580     0.44500
H416        H  0.80401600  0.51836893  0.36575751     0.44400
C417        C  0.12864123  0.20178296  0.26208521    -0.04600
C418        C  0.11923223  0.19370701  0.20196849    -0.32100
C419        C  0.09629400  0.21988692  0.16866724     0.37200
C420        C  0.08199380  0.25449480  0.19582665    -0.05000
C421        C  0.09654431  0.26520449  0.25269683    -0.32000
C422        C  0.11948413  0.23919465  0.28576788     0.37100
H423        H  0.12661350  0.16561856  0.18214371     0.17500
O424        O  0.08649553  0.21070745  0.11044145    -0.59500
H425        H  0.08753933  0.29231749  0.27383792     0.17500
O426        O  0.13010979  0.24933679  0.34320470    -0.59600
H427        H  0.15678604  0.25985653  0.34031330     0.44500
H428        H  0.07243932  0.18514448  0.11157926     0.44400
C429        C  0.62827418  0.14975087  0.18307246    -0.04600
C430        C  0.64632988  0.11331202  0.19182829    -0.32100
C431        C  0.68681262  0.11084607  0.19262237     0.37200
C432        C  0.70926449  0.14510096  0.18520605    -0.05000
C433        C  0.69097588  0.18150167  0.17897868    -0.32000
C434        C  0.65095122  0.18407173  0.17830864     0.37100
H435        H  0.62912420  0.08660468  0.19435210     0.17500
O436        O  0.70405044  0.07478659  0.19691711    -0.59500
H437        H  0.70783165  0.20798136  0.17137156     0.17500
O438        O  0.63403344  0.22022994  0.17161448    -0.59600
H439        H  0.63855269  0.22779651  0.12957111     0.44500
H440        H  0.70666402  0.06992841  0.24041019     0.44400
C441        C  0.63054722  0.14460886  0.83432185    -0.04600
C442        C  0.65144225  0.17992932  0.84149060    -0.32100
C443        C  0.69142707  0.18103494  0.83445283     0.37200
C444        C  0.71139360  0.14653306  0.81873647    -0.05000
C445        C  0.69021384  0.11171407  0.80746566    -0.32000
C446        C  0.64993667  0.11061899  0.81473204     0.37100
H447        H  0.63707295  0.20617298  0.85732494     0.17500
O448        O  0.71121343  0.21507282  0.84905426    -0.59500
H449        H  0.70525604  0.08463918  0.79759207     0.17500
O450        O  0.63068791  0.07526601  0.80961536    -0.59600
H451        H  0.62856418  0.06987230  0.76604922     0.44500
H452        H  0.71666124  0.21346070  0.89261837     0.44400
C453        C  0.07329846  0.23320786  0.82785868    -0.04600
C454        C  0.09410037  0.24454509  0.77734729    -0.32100
C455        C  0.11735434  0.21758842  0.74731949     0.37200
C456        C  0.12104465  0.17891829  0.76849062    -0.05000
C457        C  0.10574231  0.16955068  0.82422049    -0.32000
C458        C  0.08192985  0.19645124  0.85413301     0.37100
H459        H  0.08988374  0.27318727  0.75782363     0.17500
O460        O  0.13379026  0.22826370  0.69445778    -0.59500
H461        H  0.10932330  0.14020248  0.84198394     0.17500
O462        O  0.06607930  0.18615719  0.90773527    -0.59600
H463        H  0.05086280  0.16170637  0.89983650     0.44500
H464        H  0.15846198  0.24141627  0.70606607     0.44400
C465        C  0.41243947  0.10778190  0.90646394    -0.04600
C466        C  0.43932637  0.07877872  0.92220506    -0.32100
C467        C  0.47815833  0.08256531  0.90629824     0.37200
C468        C  0.49050077  0.11489017  0.87227115    -0.05000
C469        C  0.46286615  0.14132431  0.85058099    -0.32000
C470        C  0.42407126  0.13800002  0.86747300     0.37100
H471        H  0.43123097  0.05528690  0.95210166     0.17500
O472        O  0.50454908  0.05636092  0.92851102    -0.59500
H473        H  0.47198117  0.16670830  0.82523729     0.17500
O474        O  0.39847551  0.16622076  0.84941051    -0.59600
H475        H  0.38438514  0.15434959  0.81469186     0.44500
H476        H  0.51016119  0.06529409  0.97009901     0.44400
C477        C  0.18684040  0.11754391  0.78741076    -0.04600
C478        C  0.19080744  0.08328721  0.82144897    -0.32100
C479        C  0.21785618  0.08163729  0.86864358     0.37200
C480        C  0.24123101  0.11486635  0.88276387    -0.05000
C481        C  0.23715944  0.14895724  0.84815575    -0.32000
C482        C  0.21040628  0.15041092  0.80087349     0.37100
H483        H  0.17271545  0.05782545  0.81146655     0.17500
O484        O  0.22045355  0.04778967  0.90137824    -0.59500
H485        H  0.25525902  0.17459238  0.85699071     0.17500
O486        O  0.20902001  0.18325098  0.76567465    -0.59600
H487        H  0.19964577  0.20474115  0.79188637     0.44500
H488        H  0.23768479  0.03032787  0.87834100     0.44400
C489        C  0.40863046  0.11794002  0.13512954    -0.04600
C490        C  0.41906209  0.15280761  0.16588676    -0.32100
C491        C  0.45705666  0.15904235  0.18600227     0.37200
C492        C  0.48515857  0.13042178  0.17480550    -0.05000
C493        C  0.47381073  0.09398273  0.15008958    -0.32000
C494        C  0.43571423  0.08727742  0.13120289     0.37100
H495        H  0.39863583  0.17665083  0.16962577     0.17500
O496        O  0.46760485  0.19533483  0.20854133    -0.59500
H497        H  0.49539001  0.07234528  0.13881883     0.17500
O498        O  0.42700105  0.05297418  0.10088121    -0.59600
H499        H  0.41744889  0.03468566  0.13172691     0.44500
H500        H  0.46922369  0.19186278  0.25244723     0.44400
C501        C  0.18992559  0.13500220  0.24058125    -0.04600
C502        C  0.18931657  0.10062334  0.20527683    -0.32100
C503        C  0.21462875  0.09615535  0.15738888     0.37200
C504        C  0.24093331  0.12660987  0.14360677    -0.05000
C505        C  0.24113251  0.16118086  0.17880490    -0.32000
C506        C  0.21605488  0.16543009  0.22696038     0.37100
H507        H  0.16899771  0.07719689  0.21486289     0.17500
O508        O  0.21262145  0.06236357  0.12339567    -0.59500
H509        H  0.26150623  0.18472271  0.16999383     0.17500
O510        O  0.21871189  0.19846531  0.26262126    -0.59600
H511        H  0.20827909  0.22020038  0.23804257     0.44500
H512        H  0.22759363  0.04261530  0.14620499     0.44400
C513        C  0.21695540  0.99340330  0.62395907    -0.04600
C514        C  0.23627563  0.02989872  0.63062561    -0.32100
C515        C  0.21846324  0.06197122  0.65883041     0.37200
C516        C  0.18088289  0.05786548  0.68076849    -0.05000
C517        C  0.16309538  0.02067782  0.67934969    -0.32000
C518        C  0.18083828  0.98852461  0.65169058     0.37100
H519        H  0.26399721  0.03454018  0.61003969     0.17500
O520        O  0.23632402  0.09816200  0.65905338    -0.59500
H521        H  0.13419252  0.01713206  0.69641347     0.17500
O522        O  0.16188960  0.95285142  0.65007219    -0.59600
H523        H  0.14117161  0.95555671  0.61933669     0.44500
H524        H  0.25089674  0.09960060  0.69749767     0.44400
C525        C  0.21355382  0.00425763  0.38842029    -0.04600
C526        C  0.17383321  0.00548436  0.37463469    -0.32100
C527        C  0.15674653  0.03973006  0.35259503     0.37200
C528        C  0.17919709  0.07380868  0.34311273    -0.05000
C529        C  0.21927728  0.07190887  0.35181724    -0.32000
C530        C  0.23651272  0.03763023  0.37465964     0.37100
H531        H  0.15533696  0.98048253  0.38398687     0.17500
O532        O  0.11749627  0.04034828  0.34391135    -0.59500
H533        H  0.23693972  0.09791114  0.34493643     0.17500
O534        O  0.27552167  0.03785631  0.38578640    -0.59600
H535        H  0.27893663  0.05108730  0.42525242     0.44500
H536        H  0.11341361  0.03578414  0.30043201     0.44400
C537        C  0.55428320  0.11505305  0.77199709    -0.04600
C538        C  0.53981014  0.07721030  0.75903959    -0.32100
C539        C  0.54259464  0.06107287  0.70137137     0.37200
C540        C  0.55996624  0.08295523  0.65540960    -0.05000
C541        C  0.57225835  0.12171709  0.66763015    -0.32000
C542        C  0.56882026  0.13801608  0.72504308     0.37100
H543        H  0.52878638  0.05911264  0.79462733     0.17500
O544        O  0.53103484  0.02275248  0.69170663    -0.59500
H545        H  0.58556308  0.13901789  0.63297889     0.17500
O546        O  0.58123312  0.17594935  0.73543525    -0.59600
H547        H  0.55740678  0.19186176  0.73694039     0.44500
H548        H  0.55400229  0.00664181  0.70133815     0.44400
C549        C  0.55821750  0.12019187  0.25920342    -0.04600
C550        C  0.53815019  0.08513738  0.27160002    -0.32100
C551        C  0.53975190  0.06820673  0.32852587     0.37200
C552        C  0.56289125  0.08553499  0.37419520    -0.05000
C553        C  0.58207628  0.12118567  0.36240758    -0.32000
C554        C  0.57959784  0.13870636  0.30591145     0.37100
H555        H  0.52221515  0.06983731  0.23661691     0.17500
O556        O  0.52081135  0.03318647  0.33752685    -0.59500
H557        H  0.59970208  0.13532124  0.39694440     0.17500
O558        O  0.59712118  0.17457177  0.29730603    -0.59600
H559        H  0.62507009  0.17040304  0.30491278     0.44500
H560        H  0.49420902  0.04062948  0.34847179     0.44400
C561        C  0.17652532  0.69253077  0.25334254    -0.04600
C562        C  0.21168226  0.69829437  0.28464419    -0.32100
C563        C  0.24257772  0.71832242  0.25879659     0.37200
C564        C  0.23864391  0.73333179  0.20071871    -0.05000
C565        C  0.20399741  0.72644840  0.16860131    -0.32000
C566        C  0.17296150  0.70667511  0.19458880     0.37100
H567        H  0.21491426  0.68786620  0.33005180     0.17500
O568        O  0.27651527  0.72265157  0.29056019    -0.59500
H569        H  0.20066655  0.73732890  0.12346332     0.17500
O570        O  0.13885024  0.70323084  0.16311125    -0.59600
H571        H  0.12334747  0.72620188  0.17564769     0.44500
H572        H  0.29338096  0.70134643  0.27578367     0.44400
C573        C  0.29130270  0.80427946  0.24651185    -0.04600
C574        C  0.32170155  0.81170530  0.28771728    -0.32100
C575        C  0.31595090  0.83456325  0.33987005     0.37200
C576        C  0.27903702  0.84943794  0.35267033    -0.05000
C577        C  0.24898929  0.84247822  0.31092823    -0.32000
C578        C  0.25503035  0.82113463  0.25805382     0.37100
H579        H  0.34979922  0.79920050  0.28016325     0.17500
O580        O  0.34617887  0.84067717  0.37917305    -0.59500
H581        H  0.22062922  0.85452560  0.31861368     0.17500
O582        O  0.22520451  0.81751900  0.21737588    -0.59600
H583        H  0.22998499  0.83823437  0.18735491     0.44500
H584        H  0.36011070  0.86405069  0.36387483     0.44400
C585        C  0.70724947  0.74438314  0.26700892    -0.04600
C586        C  0.71114970  0.74036921  0.20509077    -0.32100
C587        C  0.71295219  0.70294723  0.17864584     0.37200
C588        C  0.71072912  0.66897724  0.21430987    -0.05000
C589        C  0.70594490  0.67304156  0.27606309    -0.32000
C590        C  0.70420528  0.71043366  0.30247592     0.37100
H591        H  0.71383852  0.76625819  0.17746322     0.17500
O592        O  0.71816232  0.69985653  0.11815305    -0.59500
H593        H  0.70356423  0.64717913  0.30381168     0.17500
O594        O  0.69934571  0.71355615  0.36303979    -0.59600
H595        H  0.67129572  0.71763813  0.36823573     0.44500
H596        H  0.74651040  0.69899288  0.11306414     0.44400
C597        C  0.63590212  0.94232581  0.39313883    -0.04600
C598        C  0.67408673  0.94673112  0.37382693    -0.32100
C599        C  0.69266884  0.91600636  0.34419302     0.37200
C600        C  0.67323269  0.88006329  0.33325621    -0.05000
C601        C  0.63403964  0.87684389  0.34696452    -0.32000
C602        C  0.61531560  0.90752269  0.37688504     0.37100
H603        H  0.69042034  0.97329866  0.38443243     0.17500
O604        O  0.73071759  0.92044896  0.32957260    -0.59500
H605        H  0.61868987  0.84930438  0.33901719     0.17500
O606        O  0.57757436  0.90214897  0.39270717    -0.59600
H607        H  0.57859839  0.88662608  0.43004002     0.44500
H608        H  0.73030471  0.93032393  0.28800776     0.44400
C609        C  0.19372781  0.67807844  0.70452019    -0.04600
C610        C  0.18566993  0.69633746  0.75940690    -0.32100
C611        C  0.21429539  0.71797643  0.79048948     0.37200
C612        C  0.25120390  0.72249900  0.76593061    -0.05000
C613        C  0.25940235  0.70419035  0.71145338    -0.32000
C614        C  0.23131058  0.68152152  0.68134595     0.37100
H615        H  0.15696565  0.69467422  0.77765045     0.17500
O616        O  0.20600804  0.73476707  0.84475164    -0.59500
H617        H  0.28813908  0.70630871  0.69328004     0.17500
O618        O  0.24111172  0.66242970  0.62955321    -0.59600
H619        H  0.24693402  0.63505186  0.64161097     0.44500
H620        H  0.19114725  0.75879996  0.83530390     0.44400
C621        C  0.29999170  0.79544202  0.72898689    -0.04600
C622        C  0.32822569  0.80138154  0.68538715    -0.32100
C623        C  0.32048403  0.82470145  0.63471107     0.37200
C624        C  0.28375268  0.84165440  0.62633333    -0.05000
C625        C  0.25603158  0.83619522  0.67058632    -0.32000
C626        C  0.26398876  0.81387369  0.72162422     0.37100
H627        H  0.35606309  0.78748076  0.69019686     0.17500
O628        O  0.34843430  0.82943487  0.59264487    -0.59500
H629        H  0.22816804  0.85022990  0.66641313     0.17500
O630        O  0.23712025  0.81188251  0.76590792    -0.59600
H631        H  0.21392690  0.79927596  0.74724437     0.44500
H632        H  0.36462469  0.85179073  0.60748157     0.44400
C633        C  0.71293103  0.74188101  0.73814199    -0.04600
C634        C  0.70960468  0.70965497  0.69846215    -0.32100
C635        C  0.71469489  0.67113216  0.71853378     0.37200
C636        C  0.72439632  0.66447637  0.77881720    -0.05000
C637        C  0.72674615  0.69667300  0.81877360    -0.32000
C638        C  0.72127774  0.73517940  0.79878776     0.37100
H639        H  0.70310916  0.71447470  0.65158566     0.17500
O640        O  0.70968919  0.64033106  0.67902073    -0.59500
H641        H  0.73373141  0.69199489  0.86551960     0.17500
O642        O  0.72558346  0.76602532  0.83839984    -0.59600
H643        H  0.75294982  0.77442673  0.83543306     0.44500
H644        H  0.68325096  0.63017583  0.68604607     0.44400
C645        C  0.67605341  0.87945159  0.68789493    -0.04600
C646        C  0.63615854  0.87677555  0.67710521    -0.32100
C647        C  0.61622136  0.90811927  0.65092604     0.37200
C648        C  0.63633583  0.94286553  0.63553849    -0.05000
C649        C  0.67534487  0.94689254  0.65314836    -0.32000
C650        C  0.69517049  0.91551263  0.67881983     0.37100
H651        H  0.62099859  0.84918375  0.68388732     0.17500
O652        O  0.57771528  0.90344571  0.63744111    -0.59500
H653        H  0.69143964  0.97348612  0.64331250     0.17500
O654        O  0.73399861  0.91932163  0.69045139    -0.59600
H655        H  0.73598643  0.93020681  0.73167069     0.44500
H656        H  0.57669104  0.88804885  0.59953905     0.44400
C657        C  0.66190825  0.81318250  0.77925093    -0.04600
C658        C  0.66403428  0.84353217  0.82234160    -0.32100
C659        C  0.63757861  0.84540266  0.86905922     0.37200
C660        C  0.60835404  0.81649864  0.87350520    -0.05000
C661        C  0.60624361  0.78616117  0.83026080    -0.32000
C662        C  0.63231487  0.78472566  0.78300801     0.37100
H663        H  0.68656240  0.86573531  0.81981380     0.17500
O664        O  0.64086970  0.87533109  0.91045653    -0.59500
H665        H  0.58357215  0.76405215  0.83213111     0.17500
O666        O  0.62791574  0.75608870  0.73980494    -0.59600
H667        H  0.61224237  0.76837063  0.70766704     0.44500
H668        H  0.65735429  0.86470800  0.94304055     0.44400
C669        C  0.37073912  0.79793458  0.82153479    -0.04600
C670        C  0.40449177  0.77954593  0.80221583    -0.32100
C671        C  0.44032408  0.78937029  0.82833511     0.37200
C672        C  0.44265160  0.81832934  0.87370517    -0.05000
C673        C  0.40987564  0.84069262  0.88642079    -0.32000
C674        C  0.37387140  0.83020405  0.86131316     0.37100
H675        H  0.40246862  0.75415113  0.77258160     0.17500
O676        O  0.47213327  0.76777515  0.81374912    -0.59500
H677        H  0.41117863  0.86309993  0.92123112     0.17500
O678        O  0.34129559  0.84837154  0.88151380    -0.59600
H679        H  0.33520706  0.83530675  0.91975529     0.44500
H680        H  0.48357536  0.78160281  0.77933975     0.44400
C681        C  0.36191895  0.80455529  0.15567820    -0.04600
C682        C  0.39345301  0.78241616  0.17591817    -0.32100
C683        C  0.43061904  0.78960287  0.15441301     0.37200
C684        C  0.43678734  0.81971062  0.11258409    -0.05000
C685        C  0.40619262  0.84500947  0.09836342    -0.32000
C686        C  0.36881090  0.83714372  0.11874259     0.37100
H687        H  0.38854307  0.75654993  0.20289472     0.17500
O688        O  0.45995844  0.76476565  0.17027860    -0.59500
H689        H  0.41026417  0.86825220  0.06614254     0.17500
O690        O  0.33849994  0.85876491  0.09706070    -0.59600
H691        H  0.33191841  0.84694028  0.05745003     0.44500
H692        H  0.46993765  0.77508615  0.20918730     0.44400
C693        C  0.65596574  0.81618671  0.23499964    -0.04600
C694        C  0.65801569  0.84684495  0.19346685    -0.32100
C695        C  0.63213580  0.84846939  0.14477103     0.37200
C696        C  0.60382786  0.81876909  0.13646860    -0.05000
C697        C  0.60142062  0.78844085  0.17862846    -0.32000
C698        C  0.62697385  0.78716029  0.22783361     0.37100
H699        H  0.68033296  0.86922516  0.19833261     0.17500
O700        O  0.63595549  0.87816079  0.10409135    -0.59500
H701        H  0.57920568  0.76591698  0.17399259     0.17500
O702        O  0.62237970  0.75859967  0.27020282    -0.59600
H703        H  0.62604375  0.73309635  0.24911876     0.44500
H704        H  0.62241206  0.90097584  0.12179333     0.44400
loop_ 
_geom_bond_atom_site_label_1 
_geom_bond_atom_site_label_2 
_geom_bond_distance 
_geom_bond_site_symmetry_2 
_ccdc_geom_bond_type 
O1           Ni9   1.916       .  S
O1           C11   1.282       .  A
O2           Ni9   1.918   1_554  S
O2           C12   1.281       .  A
O3           Ni9   1.918   1_554  S
O3           C13   1.282       .  A
O4           Ni9   1.917       .  S
O4           C14   1.281       .  A
O5          Ni10   1.930       .  S
O5           C14   1.284       .  A
O6          Ni10   1.930   1_554  S
O6           C13   1.283       .  A
O7          Ni10   1.925   1_554  S
O7           C12   1.283       .  A
O8          Ni10   1.923       .  S
O8           C11   1.281       .  A
Ni9         Ni10   2.387       .  S
C11         C672   1.476       .  S
C12         C696   1.484       .  S
C13         C684   1.484       .  S
C14         C660   1.485       .  S
N15          C19   1.360       .  A
N15          C16   1.357       .  A
N15         C657   1.445       .  S
C16         C645   1.477       .  S
C16          C17   1.383       .  A
C17          C18   1.371       .  A
C17          H20   1.082       .  S
C18          C19   1.381       .  A
C18          H21   1.082       .  S
C19         C633   1.476       .  S
N22          C26   1.362       .  A
N22          C23   1.359       .  A
N22         C621   1.450       .  S
C23         C669   1.473       .  S
C23          C24   1.382       .  A
C24          C25   1.369       .  A
C24          H27   1.083       .  S
C25          C26   1.379       .  A
C25          H28   1.082       .  S
C26         C612   1.474       .  S
N29          C33   1.358       .  A
N29          C30   1.357       .  A
N29         C693   1.444       .  S
C30         C600   1.479       .  S
C30          C31   1.384       .  A
C31          C32   1.372       .  A
C31          H34   1.082       .  S
C32          C33   1.381       .  A
C32          H35   1.082       .  S
C33         C585   1.475       .  S
N36          C40   1.368       .  A
N36          C37   1.364       .  A
N36         C573   1.456       .  S
C37         C681   1.477       .  S
C37          C38   1.381       .  A
C38          C39   1.366       .  A
C38          H41   1.083       .  S
C39          C40   1.380       .  A
C39          H42   1.082       .  S
C40         C564   1.484       .  S
O43         Ni51   1.922       .  S
O43          C53   1.282       .  A
O44         Ni51   1.923   1_565  S
O44          C54   1.284       .  A
O45         Ni51   1.909       .  S
O45          C55   1.279       .  A
O46         Ni51   1.908       .  S
O46          C56   1.280   1_545  A
O47         Ni52   1.924   1_565  S
O47          C56   1.283       .  A
O48         Ni52   1.931       .  S
O48          C55   1.285       .  A
O49         Ni52   1.913   1_565  S
O49          C54   1.280       .  A
O50         Ni52   1.920       .  S
O50          C53   1.281       .  A
Ni51        Ni52   2.384       .  S
C53         C540   1.482       .  S
C54         C597   1.489       .  S
C55         C552   1.487       .  S
C56         C648   1.486       .  S
O57         Ni65   1.937       .  S
O57          C67   1.286       .  A
O58         Ni65   1.942       .  S
O58          C68   1.286       .  A
O59         Ni65   1.930       .  S
O59          C69   1.283       .  A
O60         Ni65   1.934       .  S
O60          C70   1.283       .  A
O61         Ni66   1.924       .  S
O61          C70   1.284       .  A
O62         Ni66   1.922       .  S
O62          C69   1.283       .  A
O63         Ni66   1.920       .  S
O63          C68   1.282       .  A
O64         Ni66   1.911       .  S
O64          C67   1.280       .  A
Ni65        Ni66   2.382       .  S
C67         C513   1.493       .  S
C68         C576   1.496       .  S
C69         C525   1.498   1_565  S
C70         C624   1.491       .  S
O71         Ni79   1.919       .  S
O71          C81   1.282       .  A
O72         Ni79   1.922   1_556  S
O72          C82   1.282       .  A
O73         Ni79   1.913   1_556  S
O73          C83   1.282       .  A
O74         Ni79   1.912       .  S
O74          C84   1.281       .  A
O75         Ni80   1.915       .  S
O75          C84   1.281       .  A
O76         Ni80   1.921   1_556  S
O76          C83   1.282       .  A
O77         Ni80   1.929   1_556  S
O77          C82   1.284       .  A
O78         Ni80   1.927       .  S
O78          C81   1.283       .  A
Ni79        Ni80   2.385       .  S
C81         C504   1.489       .  S
C82         C465   1.489       .  S
C83         C480   1.485       .  S
C84         C489   1.478       .  S
N85          C89   1.359       .  A
N85          C86   1.358       .  A
N85         C477   1.439       .  S
C86         C516   1.480       .  S
C86          C87   1.381       .  A
C87          C88   1.374       .  A
C87          H90   1.082       .  S
C88          C89   1.382       .  A
C88          H91   1.082       .  S
C89         C456   1.483       .  S
N92          C96   1.362       .  A
N92          C93   1.362       .  A
N92         C537   1.443       .  S
C93         C468   1.482       .  S
C93          C94   1.381       .  A
C94          C95   1.371       .  A
C94          H97   1.082       .  S
C95          C96   1.382       .  A
C95          H98   1.083       .  S
C96         C441   1.487       .  S
N99         C103   1.362       .  A
N99         C100   1.360       .  A
N99         C549   1.450       .  S
C100        C492   1.469       .  S
C100        C101   1.379       .  A
C101        C102   1.364       .  A
C101        H104   1.082       .  S
C102        C103   1.382       .  A
C102        H105   1.082       .  S
C103        C429   1.475       .  S
N106        C110   1.365       .  A
N106        C107   1.362       .  A
N106        C501   1.443       .  S
C107        C528   1.488       .  S
C107        C108   1.381       .  A
C108        C109   1.372       .  A
C108        H111   1.082       .  S
C109        C110   1.385       .  A
C109        H112   1.082       .  S
C110        C417   1.494       .  S
O113       Ni121   1.924       .  S
O113        C123   1.283       .  A
O114       Ni121   1.926       .  S
O114        C124   1.283       .  A
O115       Ni121   1.927       .  S
O115        C125   1.283       .  A
O116       Ni121   1.929       .  S
O116        C126   1.284       .  A
O117       Ni122   1.915       .  S
O117        C126   1.280       .  A
O118       Ni122   1.907       .  S
O118        C125   1.280       .  A
O119       Ni122   1.917       .  S
O119        C124   1.282       .  A
O120       Ni122   1.916       .  S
O120        C123   1.282       .  A
Ni121      Ni122   2.386       .  S
C123        C369   1.488       .  S
C124        C408   1.485       .  S
C125        C381   1.479       .  S
C126        C393   1.484       .  S
O127       Ni135   1.922       .  S
O127        C137   1.283       .  A
O128       Ni135   1.933       .  S
O128        C138   1.284       .  A
O129       Ni135   1.906       .  S
O129        C139   1.280       .  A
O130       Ni135   1.916       .  S
O130        C140   1.280       .  A
O131       Ni136   1.907       .  S
O131        C140   1.280       .  A
O132       Ni136   1.912       .  S
O132        C139   1.280       .  A
O133       Ni136   1.911       .  S
O133        C138   1.280       .  A
O134       Ni136   1.912       .  S
O134        C137   1.280       .  A
Ni135      Ni136   2.388       .  S
C137        C333   1.485       .  S
C138        C345   1.480       .  S
C139        C357   1.477       .  S
C140        C324   1.467       .  S
O141       Ni149   1.925   1_554  S
O141        C151   1.284       .  A
O142       Ni149   1.927       .  S
O142        C152   1.283       .  A
O143       Ni149   1.919       .  S
O143        C153   1.281       .  A
O144       Ni149   1.917   1_554  S
O144        C154   1.281       .  A
O145       Ni150   1.927   1_554  S
O145        C154   1.284       .  A
O146       Ni150   1.923       .  S
O146        C153   1.282       .  A
O147       Ni150   1.933       .  S
O147        C152   1.285       .  A
O148       Ni150   1.925   1_554  S
O148        C151   1.282       .  A
Ni149      Ni150   2.383       .  S
C151        C312   1.494       .  S
C152        C273   1.499       .  S
C153        C285   1.481       .  S
C154        C300   1.491       .  S
N155        C159   1.365       .  A
N155        C156   1.360       .  A
N155        C276   1.451       .  S
C156        C372   1.473       .  S
C156        C157   1.379       .  A
C157        C158   1.367       .  A
C157        H160   1.083       .  S
C158        C159   1.385       .  A
C158        H161   1.082       .  S
C159        C609   1.485       .  S
N162        C166   1.367       .  A
N162        C163   1.363   1_455  A
N162        C288   1.466       .  S
C163        C321   1.488       .  S
C163        C164   1.381       .  A
C164        C165   1.366   1_655  A
C164        H167   1.083       .  S
C165        C166   1.387       .  A
C165        H168   1.080       .  S
C166        C453   1.500       .  S
N169        C173   1.368       .  A
N169        C170   1.365   1_455  A
N169        C309   1.468       .  S
C170        C348   1.489       .  S
C170        C171   1.380       .  A
C171        C172   1.366   1_655  A
C171        H174   1.083       .  S
C172        C173   1.386       .  A
C172        H175   1.081       .  S
C173        C420   1.501       .  S
N176        C180   1.363       .  A
N176        C177   1.356       .  A
N176        C297   1.443       .  S
C177        C384   1.472       .  S
C177        C178   1.379       .  A
C178        C179   1.369       .  A
C178        H181   1.082       .  S
C179        C180   1.384       .  A
C179        H182   1.082       .  S
C180        C561   1.483       .  S
O183       Ni191   1.900       .  S
O183        C193   1.278       .  A
O184       Ni191   1.898   1_554  S
O184        C194   1.278       .  A
O185       Ni191   1.897   1_554  S
O185        C195   1.277       .  A
O186       Ni191   1.892       .  S
O186        C196   1.278       .  A
O187       Ni192   1.934   1_556  S
O187        C196   1.283       .  A
O188       Ni192   1.937       .  S
O188        C195   1.286       .  A
O189       Ni192   1.930       .  S
O189        C194   1.282       .  A
O190       Ni192   1.935   1_556  S
O190        C193   1.285       .  A
Ni191      Ni192   2.389   1_556  S
C193        C225   1.482       .  S
C194        C261   1.469       .  S
C195        C249   1.481       .  S
C196        C237   1.467       .  S
N197        C201   1.362       .  A
N197        C198   1.358       .  A
N197        C336   1.442       .  S
C198        C444   1.482       .  S
C198        C199   1.383       .  A
C199        C200   1.374       .  A
C199        H202   1.083       .  S
C200        C201   1.384       .  A
C200        H203   1.079       .  S
C201        C240   1.502       .  S
N204        C208   1.355       .  A
N204        C205   1.361       .  A
N204        C396   1.444       .  S
C205        C636   1.480       .  S
C205        C206   1.383       .  A
C206        C207   1.372       .  A
C206        H209   1.082       .  S
C207        C208   1.381       .  A
C207        H210   1.082       .  S
C208        C228   1.473       .  S
N211        C215   1.355       .  A
N211        C212   1.360       .  A
N211        C405   1.445       .  S
C212        C588   1.476       .  S
C212        C213   1.382       .  A
C213        C214   1.373       .  A
C213        H216   1.082       .  S
C214        C215   1.382       .  A
C214        H217   1.082       .  S
C215        C252   1.474       .  S
N218        C222   1.353       .  A
N218        C219   1.351       .  A
N218        C360   1.435       .  S
C219        C432   1.474       .  S
C219        C220   1.385       .  A
C220        C221   1.379       .  A
C220        H223   1.083       .  S
C221        C222   1.382       .  A
C221        H224   1.082       .  S
C222        C264   1.489       .  S
C225        C226   1.405       .  A
C225        C230   1.412       .  A
C226        C227   1.402       .  A
C226        H231   1.083       .  S
C227        C228   1.407       .  A
C227        O232   1.371       .  S
C228        C229   1.399       .  A
C229        C230   1.399       .  A
C229        H233   1.084       .  S
C230        O234   1.373       .  S
O232        H236   0.992       .  S
O234        H235   0.992       .  S
C237        C238   1.402       .  A
C237        C242   1.400       .  A
C238        C239   1.408       .  A
C238        H243   1.083       .  S
C239        C240   1.416       .  A
C239        O244   1.373       .  S
C240        C241   1.408       .  A
C241        C242   1.394       .  A
C241        H245   1.073       .  S
C242        O246   1.374       .  S
O244        H248   0.992       .  S
O246        H247   0.992       .  S
C249        C250   1.405       .  A
C249        C254   1.413       .  A
C250        C251   1.404       .  A
C250        H255   1.083       .  S
C251        C252   1.407       .  A
C251        O256   1.371       .  S
C252        C253   1.398       .  A
C253        C254   1.398       .  A
C253        H257   1.084       .  S
C254        O258   1.373       .  S
O256        H260   0.992       .  S
O258        H259   0.992       .  S
C261        C262   1.404       .  A
C261        C266   1.403       .  A
C262        C263   1.404       .  A
C262        H267   1.083       .  S
C263        C264   1.410       .  A
C263        O268   1.370       .  S
C264        C265   1.406       .  A
C265        C266   1.396       .  A
C265        H269   1.078       .  S
C266        O270   1.373       .  S
O268        H272   0.992       .  S
O270        H271   0.992       .  S
C273        C274   1.407       .  A
C273        C278   1.416       .  A
C274        C275   1.405       .  A
C274        H279   1.083       .  S
C275        C276   1.410       .  A
C275        O280   1.371       .  S
C276        C277   1.405       .  A
C277        C278   1.407       .  A
C277        H281   1.082       .  S
C278        O282   1.372       .  S
O280        H284   0.992       .  S
O282        H283   0.992       .  S
C285        C286   1.401       .  A
C285        C290   1.402       .  A
C286        C287   1.404       .  A
C286        H291   1.084       .  S
C287        C288   1.422       .  A
C287        O292   1.370       .  S
C288        C289   1.416       .  A
C289        C290   1.401       .  A
C289        H293   1.076       .  S
C290        O294   1.372       .  S
O292        H296   0.992       .  S
O294        H295   0.992       .  S
C297        C298   1.402       .  A
C297        C302   1.407       .  A
C298        C299   1.402       .  A
C298        H303   1.083       .  S
C299        C300   1.414       .  A
C299        O304   1.372       .  S
C300        C301   1.409       .  A
C301        C302   1.404       .  A
C301        H305   1.083       .  S
C302        O306   1.371       .  S
O304        H308   0.992       .  S
O306        H307   0.992       .  S
C309        C310   1.414       .  A
C309        C314   1.425       .  A
C310        C311   1.407       .  A
C310        H315   1.081       .  S
C311        C312   1.412       .  A
C311        O316   1.372       .  S
C312        C313   1.401       .  A
C313        C314   1.403       .  A
C313        H317   1.084       .  S
C314        O318   1.370   1_455  S
O316        H320   0.992       .  S
O318        H319   0.992       .  S
C321        C322   1.406       .  A
C321        C326   1.414       .  A
C322        C323   1.400       .  A
C322        H327   1.084       .  S
C323        C324   1.408       .  A
C323        O328   1.372       .  S
C324        C325   1.398       .  A
C325        C326   1.396       .  A
C325        H329   1.084       .  S
C326        O330   1.369   1_655  S
O328        H332   0.991       .  S
O330        H331   0.992       .  S
C333        C334   1.408       .  A
C333        C338   1.412       .  A
C334        C335   1.405       .  A
C334        H339   1.083       .  S
C335        C336   1.407       .  A
C335        O340   1.370       .  S
C336        C337   1.402       .  A
C337        C338   1.395       .  A
C337        H341   1.084       .  S
C338        O342   1.372       .  S
O340        H344   0.992       .  S
O342        H343   0.992       .  S
C345        C346   1.404       .  A
C345        C350   1.409       .  A
C346        C347   1.405       .  A
C346        H351   1.084       .  S
C347        C348   1.411       .  A
C347        O352   1.371       .  S
C348        C349   1.404       .  A
C349        C350   1.401       .  A
C349        H353   1.081   1_655  S
C350        O354   1.373       .  S
O352        H356   0.992       .  S
O354        H355   0.992   1_655  S
C357        C358   1.406       .  A
C357        C362   1.410       .  A
C358        C359   1.396       .  A
C358        H363   1.083       .  S
C359        C360   1.404       .  A
C359        O364   1.368       .  S
C360        C361   1.402       .  A
C361        C362   1.396       .  A
C361        H365   1.083       .  S
C362        O366   1.372       .  S
O364        H368   0.992       .  S
O366        H367   0.992       .  S
C369        C370   1.409   1_655  A
C369        C374   1.413   1_655  A
C370        C371   1.403       .  A
C370        H375   1.083       .  S
C371        C372   1.404       .  A
C371        O376   1.371       .  S
C372        C373   1.400       .  A
C373        C374   1.400       .  A
C373        H377   1.084       .  S
C374        O378   1.372   1_455  S
O376        H380   0.992       .  S
O378        H379   0.992       .  S
C381        C382   1.406   1_655  A
C381        C386   1.411       .  A
C382        C383   1.403       .  A
C382        H387   1.083       .  S
C383        C384   1.405       .  A
C383        O388   1.372       .  S
C384        C385   1.400       .  A
C385        C386   1.397   1_455  A
C385        H389   1.084       .  S
C386        O390   1.372       .  S
O388        H392   0.992       .  S
O390        H391   0.992       .  S
C393        C394   1.403       .  A
C393        C398   1.413       .  A
C394        C395   1.401       .  A
C394        H399   1.083       .  S
C395        C396   1.409       .  A
C395        O400   1.370       .  S
C396        C397   1.402       .  A
C397        C398   1.403       .  A
C397        H401   1.083       .  S
C398        O402   1.372       .  S
O400        H404   0.992       .  S
O402        H403   0.992       .  S
C405        C406   1.406       .  A
C405        C410   1.407       .  A
C406        C407   1.404       .  A
C406        H411   1.083       .  S
C407        C408   1.410       .  A
C407        O412   1.371       .  S
C408        C409   1.406       .  A
C409        C410   1.403       .  A
C409        H413   1.084       .  S
C410        O414   1.373       .  S
O412        H416   0.992       .  S
O414        H415   0.992       .  S
C417        C418   1.403       .  A
C417        C422   1.412       .  A
C418        C419   1.409       .  A
C418        H423   1.082       .  S
C419        C420   1.415       .  A
C419        O424   1.374       .  S
C420        C421   1.405       .  A
C421        C422   1.402       .  A
C421        H425   1.082       .  S
C422        O426   1.372       .  S
O424        H428   0.992       .  S
O426        H427   0.992       .  S
C429        C430   1.405       .  A
C429        C434   1.406       .  A
C430        C431   1.406       .  A
C430        H435   1.083       .  S
C431        C432   1.406       .  A
C431        O436   1.370       .  S
C432        C433   1.401       .  A
C433        C434   1.391       .  A
C433        H437   1.084       .  S
C434        O438   1.374       .  S
O436        H440   0.992       .  S
O438        H439   0.992       .  S
C441        C442   1.402       .  A
C441        C446   1.410       .  A
C442        C443   1.398       .  A
C442        H447   1.084       .  S
C443        C444   1.410       .  A
C443        O448   1.373       .  S
C444        C445   1.405       .  A
C445        C446   1.408       .  A
C445        H449   1.083       .  S
C446        O450   1.371       .  S
O448        H452   0.992       .  S
O450        H451   0.992       .  S
C453        C454   1.405       .  A
C453        C458   1.417       .  A
C454        C455   1.399       .  A
C454        H459   1.080       .  S
C455        C456   1.406       .  A
C455        O460   1.371       .  S
C456        C457   1.401       .  A
C457        C458   1.408       .  A
C457        H461   1.084       .  S
C458        O462   1.374       .  S
O460        H464   0.991       .  S
O462        H463   0.993       .  S
C465        C466   1.405       .  A
C465        C470   1.413       .  A
C466        C467   1.403       .  A
C466        H471   1.084       .  S
C467        C468   1.409       .  A
C467        O472   1.373       .  S
C468        C469   1.403       .  A
C469        C470   1.407       .  A
C469        H473   1.084       .  S
C470        O474   1.371       .  S
O472        H476   0.992       .  S
O474        H475   0.992       .  S
C477        C478   1.403       .  A
C477        C482   1.405       .  A
C478        C479   1.403       .  A
C478        H483   1.083       .  S
C479        C480   1.414       .  A
C479        O484   1.371       .  S
C480        C481   1.405       .  A
C481        C482   1.398       .  A
C481        H485   1.083       .  S
C482        O486   1.372       .  S
O484        H488   0.992       .  S
O486        H487   0.992       .  S
C489        C490   1.405       .  A
C489        C494   1.411       .  A
C490        C491   1.399       .  A
C490        H495   1.084       .  S
C491        C492   1.406       .  A
C491        O496   1.371       .  S
C492        C493   1.401       .  A
C493        C494   1.397       .  A
C493        H497   1.084       .  S
C494        O498   1.371       .  S
O496        H500   0.991       .  S
O498        H499   0.992       .  S
C501        C502   1.403       .  A
C501        C506   1.407       .  A
C502        C503   1.404       .  A
C502        H507   1.083       .  S
C503        C504   1.412       .  A
C503        O508   1.371       .  S
C504        C505   1.407       .  A
C505        C506   1.402       .  A
C505        H509   1.083       .  S
C506        O510   1.372       .  S
O508        H512   0.992       .  S
O510        H511   0.992       .  S
C513        C514   1.409   1_565  A
C513        C518   1.415       .  A
C514        C515   1.406       .  A
C514        H519   1.083       .  S
C515        C516   1.406       .  A
C515        O520   1.371       .  S
C516        C517   1.400       .  A
C517        C518   1.401   1_545  A
C517        H521   1.084       .  S
C518        O522   1.373       .  S
O520        H524   0.991       .  S
O522        H523   0.992       .  S
C525        C526   1.407       .  A
C525        C530   1.418       .  A
C526        C527   1.400       .  A
C526        H531   1.083   1_545  S
C527        C528   1.408       .  A
C527        O532   1.372       .  S
C528        C529   1.402       .  A
C529        C530   1.409       .  A
C529        H533   1.083       .  S
C530        O534   1.371       .  S
O532        H536   0.992       .  S
O534        H535   0.992       .  S
C537        C538   1.401       .  A
C537        C542   1.411       .  A
C538        C539   1.402       .  A
C538        H543   1.083       .  S
C539        C540   1.414       .  A
C539        O544   1.372       .  S
C540        C541   1.403       .  A
C541        C542   1.401       .  A
C541        H545   1.083       .  S
C542        O546   1.371       .  S
O544        H548   0.992       .  S
O546        H547   0.992       .  S
C549        C550   1.405       .  A
C549        C554   1.412       .  A
C550        C551   1.403       .  A
C550        H555   1.078       .  S
C551        C552   1.410       .  A
C551        O556   1.371       .  S
C552        C553   1.405       .  A
C553        C554   1.404       .  A
C553        H557   1.084       .  S
C554        O558   1.372       .  S
O556        H560   0.992       .  S
O558        H559   0.993       .  S
C561        C562   1.408       .  A
C561        C566   1.408       .  A
C562        C563   1.399       .  A
C562        H567   1.084       .  S
C563        C564   1.406       .  A
C563        O568   1.371       .  S
C564        C565   1.407       .  A
C565        C566   1.400       .  A
C565        H569   1.084       .  S
C566        O570   1.371       .  S
O568        H572   0.992       .  S
O570        H571   0.992       .  S
C573        C574   1.409       .  A
C573        C578   1.413       .  A
C574        C575   1.413       .  A
C574        H579   1.081       .  S
C575        C576   1.412       .  A
C575        O580   1.371       .  S
C576        C577   1.405       .  A
C577        C578   1.401       .  A
C577        H581   1.084       .  S
C578        O582   1.371       .  S
O580        H584   0.992       .  S
O582        H583   0.992       .  S
C585        C586   1.400       .  A
C585        C590   1.410       .  A
C586        C587   1.399       .  A
C586        H591   1.083       .  S
C587        C588   1.411       .  A
C587        O592   1.372       .  S
C588        C589   1.400       .  A
C589        C590   1.397       .  A
C589        H593   1.083       .  S
C590        O594   1.372       .  S
O592        H596   0.992       .  S
O594        H595   0.992       .  S
C597        C598   1.406       .  A
C597        C602   1.417       .  A
C598        C599   1.398       .  A
C598        H603   1.083       .  S
C599        C600   1.406       .  A
C599        O604   1.371       .  S
C600        C601   1.401       .  A
C601        C602   1.402       .  A
C601        H605   1.084       .  S
C602        O606   1.372       .  S
O604        H608   0.992       .  S
O606        H607   0.992       .  S
C609        C610   1.404       .  A
C609        C614   1.414       .  A
C610        C611   1.402       .  A
C610        H615   1.083       .  S
C611        C612   1.408       .  A
C611        O616   1.372       .  S
C612        C613   1.398       .  A
C613        C614   1.397       .  A
C613        H617   1.084       .  S
C614        O618   1.371       .  S
O616        H620   0.991       .  S
O618        H619   0.992       .  S
C621        C622   1.407       .  A
C621        C626   1.409       .  A
C622        C623   1.413       .  A
C622        H627   1.082       .  S
C623        C624   1.413       .  A
C623        O628   1.371       .  S
C624        C625   1.403       .  A
C625        C626   1.402       .  A
C625        H629   1.084       .  S
C626        O630   1.372       .  S
O628        H632   0.992       .  S
O630        H631   0.992       .  S
C633        C634   1.405       .  A
C633        C638   1.404       .  A
C634        C635   1.398       .  A
C634        H639   1.084       .  S
C635        C636   1.406       .  A
C635        O640   1.371       .  S
C636        C637   1.407       .  A
C637        C638   1.399       .  A
C637        H641   1.084       .  S
C638        O642   1.371       .  S
O640        H644   0.992       .  S
O642        H643   0.992       .  S
C645        C646   1.402       .  A
C645        C650   1.405       .  A
C646        C647   1.402       .  A
C646        H651   1.083       .  S
C647        C648   1.413       .  A
C647        O652   1.372       .  S
C648        C649   1.408       .  A
C649        C650   1.396       .  A
C649        H653   1.083       .  S
C650        O654   1.372       .  S
O652        H656   0.992       .  S
O654        H655   0.992       .  S
C657        C658   1.405       .  A
C657        C662   1.407       .  A
C658        C659   1.403       .  A
C658        H663   1.083       .  S
C659        C660   1.410       .  A
C659        O664   1.371       .  S
C660        C661   1.407       .  A
C661        C662   1.402       .  A
C661        H665   1.084       .  S
C662        O666   1.371       .  S
O664        H668   0.992       .  S
O666        H667   0.992       .  S
C669        C670   1.403       .  A
C669        C674   1.407       .  A
C670        C671   1.401       .  A
C670        H675   1.084       .  S
C671        C672   1.408       .  A
C671        O676   1.371       .  S
C672        C673   1.403       .  A
C673        C674   1.403       .  A
C673        H677   1.084       .  S
C674        O678   1.372       .  S
O676        H680   0.992       .  S
O678        H679   0.992       .  S
C681        C682   1.404       .  A
C681        C686   1.408       .  A
C682        C683   1.403       .  A
C682        H687   1.084       .  S
C683        C684   1.410       .  A
C683        O688   1.371       .  S
C684        C685   1.405       .  A
C685        C686   1.405       .  A
C685        H689   1.084       .  S
C686        O690   1.372       .  S
O688        H692   0.992       .  S
O690        H691   0.992       .  S
C693        C694   1.404       .  A
C693        C698   1.408       .  A
C694        C695   1.403       .  A
C694        H699   1.083       .  S
C695        C696   1.410       .  A
C695        O700   1.371       .  S
C696        C697   1.406       .  A
C697        C698   1.404       .  A
C697        H701   1.084       .  S
C698        O702   1.372       .  S
O700        H704   0.992       .  S
O702        H703   0.992       .  S
