geometry optimzed in LAMMPS
_audit_creation_date              2020-12-01 
_audit_creation_method            'lammps2cif' 
_symmetry_space_group_name_H-M    'P1' 
_symmetry_Int_Tables_number       1 
_symmetry_cell_setting            triclinic 
loop_ 
_symmetry_equiv_pos_as_xyz 
  x,y,z 
_cell_length_a                    46.42383986 
_cell_length_b                    46.48818355877728 
_cell_length_c                    74.27890987719944 
_cell_angle_alpha                 90.0002171828167 
_cell_angle_beta                  90.05468414038138 
_cell_angle_gamma                 119.95585601601951 
loop_ 
_atom_site_label 
_atom_site_type_symbol 
_atom_site_fract_x 
_atom_site_fract_y 
_atom_site_fract_z 
_atom_site_charge 
Zn1        Zn  0.14359676  0.28900064  0.64395406     1.49700
Zn2        Zn  0.16692294  0.33376540  0.60906079     1.49400
Zn3        Zn  0.14538137  0.35909089  0.64317808     1.49100
Zn4        Zn  0.21381447  0.35746495  0.64305275     1.49500
O5          O  0.16742164  0.33481712  0.63507932    -1.84000
O6          O  0.12623443  0.25548346  0.62355299    -0.74600
O7          O  0.14154186  0.35335927  0.59893138    -0.74400
O8          O  0.10572572  0.32963871  0.65847960    -0.73900
O9          O  0.14550633  0.28812609  0.59962280    -0.74600
O10         O  0.10407522  0.28099640  0.65905256    -0.74200
O11         O  0.12754943  0.37354189  0.62224921    -0.74800
O12         O  0.22428247  0.39838219  0.65736608    -0.74200
O13         O  0.21185414  0.35808379  0.59840039    -0.75000
O14         O  0.17713893  0.39992659  0.65722909    -0.74300
O15         O  0.24567147  0.37292453  0.62196548    -0.74800
O16         O  0.22320064  0.32671971  0.65787131    -0.74700
O17         O  0.17463617  0.27953188  0.65833309    -0.74500
C18         C  0.12983507  0.25944299  0.60658473     0.77300
C19         C  0.12732217  0.36823607  0.60542266     0.77800
C20         C  0.09201840  0.29937502  0.66338077     0.76700
C21         C  0.20757927  0.41231106  0.66166673     0.77100
C22         C  0.24088519  0.37173417  0.60503977     0.78200
C23         C  0.20532263  0.29643542  0.66250963     0.77300
C24         C  0.33470204  0.16857795  0.71594086     0.45600
H25         H  0.33505111  0.16880224  0.70097728    -0.03400
C26         C  0.33375918  0.16802434  0.75110625     0.45700
H27         H  0.33329126  0.16779958  0.76603711    -0.03400
C28         C  0.31991395  0.13375031  0.72407682    -0.17100
C29         C  0.36919484  0.18864435  0.72445491    -0.16900
C30         C  0.31441305  0.18308206  0.72405131    -0.17200
C31         C  0.31853299  0.13303108  0.74261168    -0.17200
C32         C  0.36909352  0.18779779  0.74298450    -0.16800
C33         C  0.31435971  0.18364805  0.74256281    -0.17100
Zn34       Zn  0.19143501  0.31335000  0.84364074     1.49700
Zn35       Zn  0.12079144  0.30792663  0.84358306     1.49400
Zn36       Zn  0.18626972  0.37919755  0.84394288     1.49100
Zn37       Zn  0.16701883  0.33488773  0.80784804     1.49500
O38         O  0.16639402  0.33387408  0.83451339    -1.84000
O39         O  0.16362823  0.27334780  0.85920457    -0.74600
O40         O  0.10847151  0.33526360  0.85939247    -0.74400
O41         O  0.22662666  0.39108280  0.85913519    -0.73900
O42         O  0.11394452  0.26908212  0.85871531    -0.74600
O43         O  0.23004434  0.34515779  0.85892146    -0.74200
O44         O  0.15434370  0.38448785  0.85996336    -0.74800
O45         O  0.18982211  0.38322787  0.79869674    -0.74200
O46         O  0.08851909  0.29045624  0.82315385    -0.75000
O47         O  0.20026903  0.41266902  0.82389471    -0.74300
O48         O  0.11896933  0.31031818  0.79826195    -0.74800
O49         O  0.19246627  0.31219386  0.79812682    -0.74700
O50         O  0.20909523  0.29867666  0.82321884    -0.74500
C51         C  0.13323308  0.25867707  0.86391525     0.77300
C52         C  0.12448017  0.36518628  0.86485584     0.77800
C53         C  0.24084605  0.37498263  0.86396751     0.76700
C54         C  0.20072879  0.41105327  0.80679016     0.77100
C55         C  0.09087605  0.29354947  0.80612004     0.78200
C56         C  0.20809338  0.29967284  0.80612204     0.77300
Zn57       Zn  0.33279970  0.16540411  0.30869494     1.49700
Zn58       Zn  0.31419797  0.12287311  0.34570324     1.49400
Zn59       Zn  0.38092536  0.19285259  0.34358762     1.49100
Zn60       Zn  0.31139694  0.18974359  0.34428735     1.49500
O61         O  0.33484246  0.16761490  0.33531138    -1.84000
O62         O  0.31265618  0.11683839  0.30054796    -0.74600
O63         O  0.34608235  0.11723161  0.36162156    -0.74400
O64         O  0.41197530  0.21146888  0.32255264    -0.73900
O65         O  0.29981839  0.08850602  0.32625844    -0.74600
O66         O  0.38003912  0.19258184  0.29810013    -0.74200
O67         O  0.39335856  0.16460632  0.35856466    -0.74800
O68         O  0.34020178  0.22934925  0.35979463    -0.74200
O69         O  0.27485259  0.11301472  0.36139839    -0.75000
O70         O  0.38868525  0.23087845  0.35985530    -0.74300
O71         O  0.27359917  0.15998661  0.36020789    -0.74800
O72         O  0.29204851  0.20287830  0.32410125    -0.74700
O73         O  0.30361049  0.18416685  0.29915806    -0.74500
C74         C  0.30109008  0.08942595  0.30913948     0.77300
C75         C  0.37672531  0.13577269  0.36537463     0.77800
C76         C  0.40860018  0.20962062  0.30550087     0.76700
C77         C  0.37016522  0.24217185  0.36511388     0.77100
C78         C  0.26241893  0.13077660  0.36623529     0.78200
C79         C  0.28949501  0.19822066  0.30716672     0.77300
C80         C  0.16951903  0.33486753  0.21672397     0.45600
H81         H  0.17019417  0.33526000  0.20177941    -0.03400
C82         C  0.16702911  0.33326771  0.25186507     0.45700
H83         H  0.16552796  0.33244570  0.26677636    -0.03400
C84         C  0.13393960  0.31689455  0.22429350    -0.17100
C85         C  0.18682166  0.31727392  0.22529180    -0.16900
C86         C  0.18649127  0.36957454  0.22540974    -0.17200
C87         C  0.13251007  0.31631459  0.24274855    -0.17200
C88         C  0.18487170  0.31556963  0.24383785    -0.16800
C89         C  0.18563545  0.36888752  0.24395480    -0.17100
Zn90       Zn  0.28907366  0.14403898  0.14057522     1.49700
Zn91       Zn  0.35788120  0.14288546  0.14176120     1.49400
Zn92       Zn  0.33738829  0.16751840  0.10700240     1.49100
Zn93       Zn  0.35861216  0.21295152  0.14209345     1.49500
O94         O  0.33578989  0.16697710  0.13312942    -1.84000
O95         O  0.27883080  0.10376625  0.15548326    -0.74600
O96         O  0.37682872  0.12856288  0.12131240    -0.74400
O97         O  0.29269836  0.14184662  0.09587311    -0.73900
O98         O  0.32571069  0.10176130  0.15574275    -0.74600
O99         O  0.25805736  0.12643443  0.11900635    -0.74200
O100        O  0.36436362  0.14889330  0.09751228    -0.74800
O101        O  0.37476047  0.24593909  0.12132804    -0.74200
O102        O  0.39797684  0.17314571  0.15664059    -0.75000
O103        O  0.35830528  0.21301678  0.09735224    -0.74300
O104        O  0.39979340  0.22193550  0.15648266    -0.74800
O105        O  0.32675702  0.22194651  0.15672094    -0.74700
O106        O  0.27831637  0.17489546  0.15473656    -0.74500
C107        C  0.29505510  0.08933387  0.15978761     0.77300
C108        C  0.37808671  0.13382441  0.10444677     0.77800
C109        C  0.26338794  0.12689257  0.10215082     0.76700
C110        C  0.37273384  0.24173853  0.10432400     0.77100
C111        C  0.41244532  0.20390285  0.16060213     0.78200
C112        C  0.29566563  0.20486736  0.16010860     0.77300
Zn113      Zn  0.00023458  0.00081666  0.01050411     1.49700
Zn114      Zn  0.47987522  0.02513280  0.97555632     1.49400
Zn115      Zn  0.04528609  0.01937186  0.97596343     1.49100
Zn116      Zn  0.47430498  0.45455864  0.97618873     1.49500
O117        O  0.99932012  0.99960517  0.98455843    -1.84000
O118        O  0.48305785  0.02794820  0.01980767    -0.74600
O119        O  0.01064953  0.06200707  0.95946121    -0.74400
O120        O  0.07887373  0.03548903  0.99643372    -0.73900
O121        O  0.46682400  0.04528766  0.99607979    -0.74600
O122        O  0.04587301  0.01970715  0.02035188    -0.74200
O123        O  0.05628627  0.05788934  0.95951926    -0.74800
O124        O  0.00191005  0.44105457  0.96150025    -0.74200
O125        O  0.44004651  0.49813861  0.96017809    -0.75000
O126        O  0.05192025  0.48644431  0.96092702    -0.74300
O127        O  0.43669146  0.44871978  0.96025564    -0.74800
O128        O  0.45600554  0.42215027  0.99715081    -0.74700
O129        O  0.47528404  0.45651609  0.02036707    -0.74500
C130        C  0.47020575  0.04397390  0.01304261     0.77300
C131        C  0.04005659  0.07156649  0.95396363     0.77800
C132        C  0.07465115  0.03279213  0.01342397     0.76700
C133        C  0.03189906  0.45666643  0.95609631     0.77100
C134        C  0.42629316  0.46802744  0.95501890     0.78200
C135        C  0.45876459  0.42729708  0.01407430     0.77300
Zn136      Zn  0.02390271  0.47718517  0.47662756     1.49700
Zn137      Zn  0.00263436  0.00061793  0.51158548     1.49400
Zn138      Zn  0.02668636  0.04810784  0.47815785     1.49100
Zn139      Zn  0.45482026  0.48006666  0.47760815     1.49500
O140        O  0.00192908  0.00161988  0.48567440    -1.84000
O141        O  0.03874347  0.45775541  0.49683313    -0.74600
O142        O  0.02563510  0.04536968  0.52229586    -0.74400
O143        O  0.06497048  0.05603970  0.46248001    -0.73900
O144        O  0.02430849  0.47613536  0.52078575    -0.74600
O145        O  0.06258454  0.00709285  0.46082749    -0.74200
O146        O  0.04290159  0.08017041  0.49918896    -0.74800
O147        O  0.44796391  0.01269171  0.46283893    -0.74200
O148        O  0.45682849  0.47834763  0.52197646    -0.75000
O149        O  0.49766425  0.05834197  0.46235312    -0.74300
O150        O  0.42265601  0.46424931  0.49864413    -0.74800
O151        O  0.44400882  0.44086373  0.46158406    -0.74700
O152        O  0.49085091  0.43882752  0.46090437    -0.74500
C153        C  0.03640851  0.45961019  0.51384268     0.77300
C154        C  0.03958542  0.07463276  0.51605831     0.77800
C155        C  0.07552298  0.03749272  0.45626745     0.76700
C156        C  0.46719234  0.04247113  0.45775897     0.77100
C157        C  0.42766611  0.46530320  0.51555790     0.78200
C158        C  0.46085820  0.42787000  0.45596152     0.77300
C159        C  0.12914783  0.04088326  0.05322033    -0.11200
C160        C  0.15535394  0.07345152  0.05105231     0.15300
C161        C  0.15589584  0.09205305  0.03589521     0.02200
C162        C  0.13012516  0.07762545  0.02323375    -0.15600
C163        C  0.10344644  0.04525337  0.02562963    -0.10400
C164        C  0.10333251  0.02654423  0.04067240     0.08900
C165        C  0.18246745  0.08655707  0.06443123     0.10000
S166        S  0.18831660  0.13435534  0.03212935    -0.24700
H167        H  0.13019756  0.09221437  0.01184323     0.20200
S168        S  0.07358954  0.48405689  0.04352073    -0.30400
H169        H  0.12904103  0.02642403  0.06468520     0.10500
C170        C  0.17903932  0.09825742  0.08132100     0.03700
C171        C  0.20542247  0.11030367  0.09365946    -0.12700
C172        C  0.23508302  0.11059931  0.08947321    -0.08400
C173        C  0.23763896  0.09726582  0.07276514     0.07200
C174        C  0.21158309  0.08598921  0.06035869    -0.13500
S175        S  0.14152907  0.09895842  0.08685890    -0.30400
H176        H  0.20331109  0.12043092  0.10638391     0.11400
S177        S  0.27264828  0.09250611  0.06667550    -0.27500
H178        H  0.21371572  0.07608004  0.04753762     0.08700
H179        H  0.06789675  0.47606317  0.02510949     0.27100
H180        H  0.15040606  0.11030769  0.10466314     0.21900
H181        H  0.27743862  0.08377353  0.08411025     0.27200
H182        H  0.19640861  0.14291790  0.05031664     0.16000
C183        C  0.41463500  0.29629501  0.06400039    -0.11200
C184        C  0.40688348  0.32148705  0.06652046     0.15300
C185        C  0.38927203  0.32132802  0.08206752     0.02200
C186        C  0.37997653  0.29600915  0.09479786    -0.15600
C187        C  0.38720812  0.27043137  0.09209299    -0.10400
C188        C  0.40533941  0.27101895  0.07666280     0.08900
C189        C  0.41959226  0.34865685  0.05324200     0.10000
S190        S  0.37755042  0.35233162  0.08630812    -0.24700
H191        H  0.36582151  0.29551374  0.10650799     0.20200
S192        S  0.41834521  0.24089602  0.07261916    -0.30400
H193        H  0.42872846  0.29678668  0.05225716     0.10500
C194        C  0.44732767  0.37975010  0.05718092     0.03700
C195        C  0.45914733  0.40472191  0.04413834    -0.12700
C196        C  0.44394024  0.39940962  0.02710101    -0.08400
C197        C  0.41591660  0.36802250  0.02326181     0.07200
C198        C  0.40441900  0.34290153  0.03627831    -0.13500
S199        S  0.46842052  0.38727659  0.07860838    -0.30400
H200        H  0.48085555  0.42844055  0.04717439     0.11400
S201        S  0.39290387  0.35870703  0.00248498    -0.27500
H202        H  0.38305014  0.31882834  0.03331342     0.08700
H203        H  0.42262732  0.23583683  0.09087513     0.27100
H204        H  0.49257115  0.42060651  0.07544737     0.21900
H205        H  0.39324522  0.38913253  0.00187467     0.27200
H206        H  0.37610899  0.36031101  0.06820658     0.16000
C207        C  0.41318533  0.08434861  0.08196227    -0.11200
C208        C  0.42801393  0.10399495  0.06670433     0.15300
C209        C  0.42842245  0.13426750  0.06464243     0.02200
C210        C  0.41236397  0.14339958  0.07734801    -0.15600
C211        C  0.39623352  0.12321068  0.09232920    -0.10400
C212        C  0.39714345  0.09350177  0.09476007     0.08900
C213        C  0.44014553  0.09082432  0.05241636     0.10000
S214        S  0.44844697  0.16192331  0.04594266    -0.24700
H215        H  0.41242334  0.16655603  0.07547437     0.20200
S216        S  0.37642684  0.06507015  0.11302804    -0.30400
H217        H  0.41286289  0.06099059  0.08347998     0.10500
C218        C  0.47046990  0.09124023  0.05416220     0.03700
C219        C  0.48003123  0.07668420  0.04071750    -0.12700
C220        C  0.45970645  0.06143402  0.02562837    -0.08400
C221        C  0.42940881  0.06141894  0.02384979     0.07200
C222        C  0.42019717  0.07654090  0.03715775    -0.13500
S223        S  0.49698147  0.11046083  0.07344802    -0.30400
H224        H  0.50333267  0.07682367  0.04204532     0.11400
S225        S  0.40041632  0.04061679  0.00576144    -0.27500
H226        H  0.39671160  0.07610202  0.03597742     0.08700
H227        H  0.34726646  0.06714614  0.11184392     0.27100
H228        H  0.01943010  0.10208656  0.06930949     0.21900
H229        H  0.40458293  0.01264629  0.00563906     0.27200
H230        H  0.47311116  0.15324529  0.04322702     0.16000
C231        C  0.50065626  0.22619492  0.17362097    -0.11200
C232        C  0.00779986  0.24904288  0.18698823     0.15300
C233        C  0.48323704  0.25764505  0.19224722     0.02200
C234        C  0.45263125  0.24283078  0.18321143    -0.15600
C235        C  0.44537304  0.21924948  0.16959180    -0.10400
C236        C  0.47001605  0.21118844  0.16465411     0.08900
C237        C  0.04149745  0.26542482  0.19515605     0.10000
S238        S  0.48930310  0.28633498  0.21012334    -0.24700
H239        H  0.43406557  0.24925070  0.18711167     0.20200
S240        S  0.46488141  0.18351205  0.14634213    -0.30400
H241        H  0.01905231  0.21969973  0.16901236     0.10500
C242        C  0.05166641  0.24805395  0.20667173     0.03700
C243        C  0.08269813  0.26519037  0.21524560    -0.12700
C244        C  0.10361148  0.29951457  0.21283569    -0.08400
C245        C  0.09381962  0.31654938  0.20079058     0.07200
C246        C  0.06313190  0.29931932  0.19194617    -0.13500
S247        S  0.02461063  0.20439124  0.21107138    -0.30400
H248        H  0.09041156  0.25204525  0.22429764     0.11400
S249        S  0.11819461  0.36053677  0.19713395    -0.27500
H250        H  0.05542398  0.31269845  0.18303973     0.08700
H251        H  0.44845579  0.19486567  0.13492299     0.27100
H252        H  0.04349075  0.20187111  0.22517102     0.21900
H253        H  0.12403686  0.36775344  0.21557268     0.27200
H254        H  0.01092119  0.27844685  0.22043900     0.16000
C255        C  0.23964236  0.44072631  0.19316356    -0.11200
C256        C  0.22922181  0.46348956  0.19740768     0.15300
C257        C  0.20310404  0.45431533  0.20983100     0.02200
C258        C  0.18948229  0.42354136  0.21847100    -0.15600
C259        C  0.20062069  0.40102977  0.21473477    -0.10400
C260        C  0.22547826  0.40953340  0.20151996     0.08900
C261        C  0.24583263  0.49626808  0.18834797     0.10000
S262        S  0.18565850  0.48036771  0.21504700    -0.24700
H263        H  0.17003305  0.41716221  0.22832197     0.20200
S264        S  0.24021452  0.38160479  0.19540377    -0.30400
H265        H  0.25905206  0.44761106  0.18322594     0.10500
C266        C  0.28040876  0.01957314  0.19165789     0.03700
C267        C  0.29556787  0.04972709  0.18216642    -0.12700
C268        C  0.27778257  0.05705244  0.16940505    -0.08400
C269        C  0.24407759  0.03312509  0.16597038     0.07200
C270        C  0.22900362  0.00318555  0.17552052    -0.13500
S271        S  0.30379957  0.01155571  0.20839080    -0.30400
H272        H  0.32133185  0.06786287  0.18482622     0.11400
S273        S  0.21935303  0.03817949  0.14887069    -0.27500
H274        H  0.20253174  0.48515847  0.17262544     0.08700
H275        H  0.26658574  0.40366182  0.18430906     0.27100
H276        H  0.33313234  0.04254691  0.20722579     0.21900
H277        H  0.24501173  0.05167703  0.13600978     0.27200
H278        H  0.21642492  0.01110210  0.21264040     0.16000
C279        C  0.25100487  0.29573296  0.20747810    -0.11200
C280        C  0.23189896  0.27028912  0.19522372     0.15300
C281        C  0.19836566  0.26150430  0.19231720     0.02200
C282        C  0.18478728  0.27807464  0.20179304    -0.15600
C283        C  0.20382841  0.30329114  0.21422032    -0.10400
C284        C  0.23766657  0.31256909  0.21677854     0.08900
C285        C  0.24782879  0.25339147  0.18594971     0.10000
S286        S  0.17146745  0.22913644  0.17693298    -0.24700
H287        H  0.15884614  0.27062344  0.19981532     0.20200
S288        S  0.26564030  0.34578770  0.23145900    -0.30400
H289        H  0.27673098  0.30264286  0.20976710     0.10500
C290        C  0.27396330  0.27050276  0.17356593     0.03700
C291        C  0.28953291  0.25428021  0.16575371    -0.12700
C292        C  0.27916500  0.22091809  0.16969719    -0.08400
C293        C  0.25269096  0.20365940  0.18200304     0.07200
C294        C  0.23754621  0.22017583  0.19008031    -0.13500
S295        S  0.28674898  0.31273141  0.16719283    -0.30400
H296        H  0.30941071  0.26743238  0.15616041     0.11400
S297        S  0.23902105  0.16117201  0.18822191    -0.27500
H298        H  0.21780260  0.20736920  0.19979175     0.08700
H299        H  0.24827081  0.36323302  0.23129087     0.27100
H300        H  0.31050362  0.31633846  0.15430199     0.21900
H301        H  0.21232207  0.15640988  0.19920632     0.27200
H302        H  0.19652426  0.23321655  0.16485749     0.16000
C303        C  0.27650084  0.00043807  0.29672585    -0.11200
C304        C  0.25709339  0.49516615  0.28141905     0.15300
C305        C  0.25381338  0.02209773  0.27459415     0.02200
C306        C  0.26924825  0.05273562  0.28354047    -0.15600
C307        C  0.28819761  0.05765590  0.29915709    -0.10400
C308        C  0.29250541  0.03125853  0.30550264     0.08900
C309        C  0.23975609  0.46170533  0.27297697     0.10000
S310        S  0.22984184  0.01839346  0.25479669    -0.24700
H311        H  0.26578494  0.07267334  0.27848076     0.20200
S312        S  0.31878527  0.03545468  0.32439202    -0.30400
H313        H  0.27923432  0.47994689  0.30205371     0.10500
C314        C  0.25610583  0.45161617  0.26071383     0.03700
C315        C  0.23807774  0.42092835  0.25190060    -0.12700
C316        C  0.20391708  0.39976392  0.25511333    -0.08400
C317        C  0.18798602  0.40958880  0.26789819     0.07200
C318        C  0.20600459  0.44025179  0.27671903    -0.13500
S319        S  0.29965122  0.47842072  0.25579070    -0.30400
H320        H  0.25050185  0.41357370  0.24216213     0.11400
S321        S  0.14425054  0.38544992  0.27237005    -0.27500
H322        H  0.19334906  0.44799307  0.28612705     0.08700
H323        H  0.34279380  0.06866110  0.32076784     0.27100
H324        H  0.30241000  0.45766651  0.24295913     0.21900
H325        H  0.13623677  0.38127311  0.25398122     0.27200
H326        H  0.23773496  0.49608771  0.24553626     0.16000
C327        C  0.49521636  0.27415394  0.29012821    -0.11200
C328        C  0.00211282  0.25735249  0.27626128     0.15300
C329        C  0.47491491  0.22583077  0.27079390     0.02200
C330        C  0.44440891  0.21119490  0.27999939    -0.15600
C331        C  0.43903298  0.22764864  0.29433415    -0.10400
C332        C  0.46445756  0.26010382  0.29886614     0.08900
C333        C  0.03569289  0.27305010  0.26785605     0.10000
S334        S  0.98028086  0.20227607  0.25295902    -0.24700
H335        H  0.42504947  0.18648021  0.27622362     0.20200
S336        S  0.45896006  0.28539255  0.31531792    -0.30400
H337        H  0.51480983  0.29861334  0.29412907     0.10500
C338        C  0.04829285  0.30241667  0.25755548     0.03700
C339        C  0.08004000  0.31624355  0.24998753    -0.12700
C340        C  0.10028850  0.30210105  0.25272837    -0.08400
C341        C  0.08800934  0.27306577  0.26324908     0.07200
C342        C  0.05587205  0.25883263  0.27067728    -0.13500
S343        S  0.02508987  0.32338685  0.25340222    -0.30400
H344        H  0.08873043  0.33792708  0.24150786     0.11400
S345        S  0.11227297  0.25293326  0.26635742    -0.27500
H346        H  0.04625698  0.23644891  0.27867454     0.08700
H347        H  0.42475720  0.27216338  0.31212082     0.27100
H348        H  0.99352921  0.29466057  0.25325295     0.21900
H349        H  0.08888227  0.22625979  0.27682233     0.27200
H350        H  0.00199657  0.23010815  0.24264546     0.16000
C351        C  0.22665123  0.22526661  0.29570439    -0.11200
C352        C  0.23870798  0.24124133  0.27917969     0.15300
C353        C  0.26594507  0.24057015  0.27106762     0.02200
C354        C  0.28094271  0.22468879  0.27992267    -0.15600
C355        C  0.26975000  0.20988226  0.29688345    -0.10400
C356        C  0.24136804  0.20920217  0.30446119     0.08900
C357        C  0.22250662  0.25867555  0.27098184     0.10000
S358        S  0.28328326  0.26015607  0.24971980    -0.24700
H359        H  0.30248436  0.22526961  0.27389819     0.20200
S360        S  0.22197536  0.18748257  0.32502349    -0.30400
H361        H  0.20533639  0.22510461  0.30178112     0.10500
C362        C  0.20097275  0.24548443  0.25613566     0.03700
C363        C  0.18720432  0.26352813  0.24855357    -0.12700
C364        C  0.19607286  0.29562259  0.25466885    -0.08400
C365        C  0.21652873  0.30799827  0.27014533     0.07200
C366        C  0.22901635  0.28919961  0.27824238    -0.13500
S367        S  0.19114851  0.20581121  0.24670747    -0.30400
H368        H  0.16991609  0.25282166  0.23747317     0.11400
S369        S  0.22944808  0.34818752  0.27966703    -0.27500
H370        H  0.24521535  0.29913542  0.28984811     0.08700
H371        H  0.22840264  0.16130438  0.32207961     0.27100
H372        H  0.17627668  0.20871388  0.23080707     0.21900
H373        H  0.23789480  0.36416821  0.26295749     0.27200
H374        H  0.27444257  0.28493122  0.25077508     0.16000
C375        C  0.20442551  0.12391386  0.40422480    -0.11200
C376        C  0.18176412  0.08976479  0.40417671     0.15300
C377        C  0.18502477  0.06930886  0.39124175     0.02200
C378        C  0.21176781  0.08323582  0.37922478    -0.15600
C379        C  0.23482765  0.11742599  0.37937755    -0.10400
C380        C  0.23099103  0.13794404  0.39214761     0.08900
C381        C  0.15513941  0.07645246  0.41785625     0.10000
S382        S  0.15568767  0.02549349  0.38914215    -0.24700
H383        H  0.21416326  0.06731379  0.36940389     0.20200
S384        S  0.25990030  0.18179570  0.39453557    -0.30400
H385        H  0.20187790  0.13965249  0.41411778     0.10500
C386        C  0.15435512  0.05574589  0.43194576     0.03700
C387        C  0.12792022  0.04304984  0.44425142    -0.12700
C388        C  0.10276466  0.05135328  0.44298679    -0.08400
C389        C  0.10403851  0.07259250  0.42895981     0.07200
C390        C  0.13033284  0.08511384  0.41672127    -0.13500
S391        S  0.18758501  0.04651278  0.43462925    -0.30400
H392        H  0.12708677  0.02706236  0.45508378     0.11400
S393        S  0.07216948  0.08340460  0.42529811    -0.27500
H394        H  0.13105001  0.10111930  0.40590394     0.08700
H395        H  0.28841795  0.17867219  0.39290612     0.27100
H396        H  0.17491479  0.02665383  0.45010342     0.21900
H397        H  0.04546119  0.05163124  0.42931672     0.27200
H398        H  0.12793912  0.02676290  0.39567232     0.16000
C399        C  0.42744938  0.31972008  0.39210231    -0.11200
C400        C  0.40608724  0.31806119  0.40588651     0.15300
C401        C  0.37280757  0.29191142  0.40595496     0.02200
C402        C  0.36157494  0.26823058  0.39216124    -0.15600
C403        C  0.38299184  0.26961795  0.37838558    -0.10400
C404        C  0.41628394  0.29600671  0.37835073     0.08900
C405        C  0.41891245  0.34507109  0.41936003     0.10000
S406        S  0.34365505  0.28712994  0.42335492    -0.24700
H407        H  0.33608776  0.24795609  0.39249822     0.20200
S408        S  0.44524491  0.30190425  0.36070593    -0.30400
H409        H  0.45288643  0.34012987  0.39186061     0.10500
C410        C  0.44122544  0.34751487  0.43292508     0.03700
C411        C  0.45425498  0.37461059  0.44478456    -0.12700
C412        C  0.44560057  0.39950332  0.44329050    -0.08400
C413        C  0.42329965  0.39695693  0.42952595     0.07200
C414        C  0.40987952  0.36957418  0.41793120    -0.13500
S415        S  0.45265806  0.31582504  0.43526861    -0.30400
H416        H  0.47120966  0.37639152  0.45532060     0.11400
S417        S  0.41270256  0.42872313  0.42518377    -0.27500
H418        H  0.39312273  0.36790128  0.40728063     0.08700
H419        H  0.42135772  0.29169955  0.34689853     0.27100
H420        H  0.47494685  0.33061440  0.44969237     0.21900
H421        H  0.44514440  0.45538063  0.42792174     0.27200
H422        H  0.36719662  0.30222838  0.43719463     0.16000
C423        C  0.43196971  0.13183088  0.40224663    -0.11200
C424        C  0.41777097  0.09746629  0.40448900     0.15300
C425        C  0.39086374  0.07582890  0.39340563     0.02200
C426        C  0.37832390  0.08900474  0.38070962    -0.15600
C427        C  0.39268603  0.12350249  0.37826582    -0.10400
C428        C  0.42034147  0.14505488  0.38909439     0.08900
C429        C  0.43120391  0.08501202  0.41869084     0.10000
S430        S  0.37161853  0.03122809  0.39467459    -0.24700
H431        H  0.35731801  0.07203576  0.37251605     0.20200
S432        S  0.44103479  0.18962374  0.38756398    -0.30400
H433        H  0.45245126  0.14854781  0.41082505     0.10500
C434        C  0.46416318  0.09116511  0.41798728     0.03700
C435        C  0.47548939  0.07797939  0.43135589    -0.12700
C436        C  0.45461876  0.05863725  0.44542771    -0.08400
C437        C  0.42209138  0.05379256  0.44656218     0.07200
C438        C  0.41070353  0.06682015  0.43313721    -0.13500
S439        S  0.49131209  0.11405121  0.39951566    -0.30400
H440        H  0.50038661  0.08161918  0.43042811     0.11400
S441        S  0.39437144  0.03222735  0.46499799    -0.27500
H442        H  0.38564398  0.06283499  0.43395802     0.08700
H443        H  0.45258354  0.18995101  0.37000295     0.27100
H444        H  0.52036358  0.11597796  0.40657007     0.21900
H445        H  0.41953390  0.04316310  0.47813596     0.27200
H446        H  0.40063543  0.03067331  0.39950000     0.16000
C447        C  0.09302208  0.12882713  0.91605199    -0.11200
C448        C  0.08376260  0.15325129  0.91661277     0.15300
C449        C  0.06016424  0.15067838  0.92942497     0.02200
C450        C  0.04620738  0.12371273  0.94126642    -0.15600
C451        C  0.05546688  0.09918393  0.94082256    -0.10400
C452        C  0.07891983  0.10169508  0.92779778     0.08900
C453        C  0.09720648  0.17968165  0.90279644     0.10000
S454        S  0.04688217  0.18099291  0.93137867    -0.24700
H455        H  0.02827047  0.12217571  0.95110744     0.20200
S456        S  0.09028364  0.07020587  0.92451807    -0.30400
H457        H  0.11055391  0.13035008  0.90594104     0.10500
C458        C  0.13082935  0.20490417  0.90278213     0.03700
C459        C  0.14216983  0.22974699  0.88956026    -0.12700
C460        C  0.12056421  0.22988327  0.87630522    -0.08400
C461        C  0.08713375  0.20367934  0.87602295     0.07200
C462        C  0.07580911  0.17919902  0.88934286    -0.13500
S463        S  0.15888262  0.20635128  0.92009728    -0.30400
H464        H  0.16772463  0.24975520  0.88990616     0.11400
S465        S  0.05796352  0.19917473  0.85871485    -0.27500
H466        H  0.05013088  0.15934458  0.88913601     0.08700
H467        H  0.05763287  0.04344000  0.92636094     0.27100
H468        H  0.18760653  0.23432191  0.91349974     0.21900
H469        H  0.08155562  0.21002646  0.84475447     0.27200
H470        H  0.07693914  0.20832157  0.92559561     0.16000
C471        C  0.31879432  0.43793030  0.88900789    -0.11200
C472        C  0.32092684  0.41765104  0.90229560     0.15300
C473        C  0.29680900  0.38360477  0.90284400     0.02200
C474        C  0.27186746  0.37034203  0.88976967    -0.15600
C475        C  0.26956367  0.39046446  0.87640075    -0.10400
C476        C  0.29354932  0.42471562  0.87599585     0.08900
C477        C  0.34908333  0.43217676  0.91508768     0.10000
S478        S  0.29618950  0.35586237  0.92003973    -0.25700
H479        H  0.25338902  0.34419462  0.89042901     0.20200
S480        S  0.29429532  0.45253200  0.85884783    -0.30400
H481        H  0.33739809  0.46405143  0.88852186     0.10500
C482        C  0.37453983  0.42411370  0.91420365     0.03700
C483        C  0.39892033  0.43559188  0.92767099    -0.12700
C484        C  0.39875011  0.45547978  0.94186873    -0.08400
C485        C  0.37355209  0.46412148  0.94246374     0.07200
C486        C  0.34921241  0.45263967  0.92898109    -0.13500
S487        S  0.37633590  0.39978343  0.89571173    -0.30400
H488        H  0.41863282  0.42959412  0.92696363     0.11400
S489        S  0.36999752  0.48812862  0.96048808    -0.27500
H490        H  0.32949505  0.45866092  0.92967861     0.08700
H491        H  0.28434814  0.42918004  0.84479251     0.27100
H492        H  0.40481816  0.39906536  0.90152596     0.21900
H493        H  0.38052702  0.47438407  0.97409371     0.27200
H494        H  0.30983499  0.37972096  0.93381763     0.16000
C495        C  0.03604117  0.40562683  0.91738399    -0.11200
C496        C  0.06816127  0.41055649  0.91957891     0.15300
C497        C  0.08800706  0.43000032  0.93408103     0.02200
C498        C  0.07560512  0.44474631  0.94580452    -0.15600
C499        C  0.04356272  0.44014864  0.94352135    -0.10400
C500        C  0.02365936  0.42045994  0.92902749     0.08900
C501        C  0.08152267  0.39825273  0.90539869     0.10000
S502        S  0.12939600  0.43718882  0.93820114    -0.24700
H503        H  0.09101642  0.45976720  0.95687047     0.20200
S504        S  0.98343419  0.41540420  0.92374052    -0.30400
H505        H  0.02109051  0.39132972  0.90601133     0.10500
C506        C  0.07024391  0.36420148  0.90316016     0.03700
C507        C  0.08390256  0.35398292  0.88944076    -0.12700
C508        C  0.10847401  0.37716788  0.87780341    -0.08400
C509        C  0.11847081  0.41121470  0.87970758     0.07200
C510        C  0.10531003  0.42133812  0.89360209    -0.13500
S511        S  0.03945741  0.33397580  0.91820787    -0.30400
H512        H  0.07605260  0.32790765  0.88810920     0.11400
S513        S  0.14664760  0.44291750  0.86447341    -0.27500
H514        H  0.11323361  0.44744584  0.89506564     0.08700
H515        H  0.99239638  0.44846836  0.92763935     0.27100
H516        H  0.03830823  0.30579686  0.91048017     0.21900
H517        H  0.13304816  0.42307392  0.84904418     0.27200
H518        H  0.12428469  0.40731694  0.93057254     0.16000
C519        C  0.00533435  0.22903291  0.78973460    -0.11200
C520        C  0.49738767  0.24804437  0.77838242     0.15300
C521        C  0.02018931  0.28200809  0.77592778     0.02200
C522        C  0.05136382  0.29611096  0.78441811    -0.15600
C523        C  0.05979420  0.27698525  0.79552299    -0.10400
C524        C  0.03661750  0.24289252  0.79787463     0.08900
C525        C  0.46401286  0.23164149  0.76991041     0.10000
S526        S  0.01179156  0.30852417  0.76178071    -0.24700
H527        H  0.06889034  0.32234030  0.78265448     0.20200
S528        S  0.04563945  0.21554488  0.81084127    -0.30400
H529        H  0.48758620  0.20309985  0.79192771     0.10500
C530        C  0.45585124  0.20772586  0.75631150     0.03700
C531        C  0.42411340  0.19254084  0.74865436    -0.12700
C532        C  0.40044883  0.20147391  0.75373607    -0.08400
C533        C  0.40830839  0.22481487  0.76772286     0.07200
C534        C  0.44005025  0.23962042  0.77569889    -0.13500
S535        S  0.48638441  0.19768790  0.74802735    -0.30400
H536        H  0.41791951  0.17411982  0.73823860     0.11400
S537        S  0.37900997  0.23738726  0.77472746    -0.27500
H538        H  0.44653935  0.25786509  0.78627958     0.08700
H539        H  0.08004038  0.23257035  0.80746576     0.27100
H540        H  0.46651108  0.17545948  0.73446873     0.21900
H541        H  0.39912800  0.26009165  0.78803893     0.27200
H542        H  0.49197539  0.28264287  0.74860603     0.16000
C543        C  0.29807219  0.06196474  0.77571748    -0.11200
C544        C  0.26652639  0.03782119  0.76958106     0.15300
C545        C  0.25144260  0.04591351  0.75549983     0.02200
C546        C  0.26823267  0.07758134  0.74781241    -0.15600
C547        C  0.30073004  0.10126973  0.75309424    -0.10400
C548        C  0.31541577  0.09335719  0.76756323     0.08900
C549        C  0.24935186  0.00496136  0.77861703     0.10000
S550        S  0.21083674  0.01703542  0.74669939    -0.24700
H551        H  0.25596817  0.08349126  0.73725166     0.20200
S552        S  0.35646200  0.12148381  0.77589123    -0.30400
H553        H  0.30954704  0.05603377  0.78672828     0.10500
C554        C  0.25322698  0.47830580  0.77288993     0.03700
C555        C  0.23650531  0.44755010  0.78188779    -0.12700
C556        C  0.21484477  0.44250559  0.79630376    -0.08400
C557        C  0.20906434  0.46866969  0.80121834     0.07200
C558        C  0.22587519  0.49925736  0.79231182    -0.13500
S559        S  0.28246403  0.98451326  0.75501542    -0.30400
H560        H  0.24103874  0.42770354  0.77804046     0.11400
S561        S  0.17972436  0.46444289  0.81832398    -0.27500
H562        H  0.22299653  0.01996700  0.79658509     0.08700
H563        H  0.37024175  0.13140774  0.75870393     0.27100
H564        H  0.27730296  0.45226941  0.75502832     0.21900
H565        H  0.15690721  0.43089758  0.81462313     0.27200
H566        H  0.21160401  0.48814777  0.74913972     0.16000
C567        C  0.25928582  0.20164328  0.77338348    -0.11200
C568        C  0.26897811  0.23439841  0.76838306     0.15300
C569        C  0.29498567  0.25086240  0.75586135     0.02200
C570        C  0.31046381  0.23432375  0.74858796    -0.15600
C571        C  0.30004517  0.20111736  0.75296053    -0.10400
C572        C  0.27448592  0.18478523  0.76576708     0.08900
C573        C  0.25332289  0.25163639  0.77741675     0.10000
S574        S  0.30981326  0.29301561  0.74863495    -0.24700
H575        H  0.33032533  0.24730978  0.73896387     0.20200
S576        S  0.26013289  0.14216965  0.77187648    -0.30400
H577        H  0.23970245  0.18932824  0.78324659     0.10500
C578        C  0.22440853  0.25053481  0.77061082     0.03700
C579        C  0.21066248  0.26741824  0.77976844    -0.12700
C580        C  0.22536069  0.28546959  0.79560954    -0.08400
C581        C  0.25521660  0.28749262  0.80186648     0.07200
C582        C  0.26844386  0.27024167  0.79289615    -0.13500
S583        S  0.20530840  0.22780765  0.75020840    -0.30400
H584        H  0.18792431  0.26579526  0.77486378     0.11400
S585        S  0.27853209  0.31264336  0.82082522    -0.27500
H586        H  0.29111228  0.27173794  0.79787670     0.08700
H587        H  0.23308673  0.13764730  0.78246752     0.27100
H588        H  0.18107587  0.23742601  0.74877342     0.21900
H589        H  0.27198744  0.33854117  0.81717355     0.27200
H590        H  0.27945193  0.29251083  0.75030853     0.16000
C591        C  0.45304026  0.25561496  0.70686936    -0.11200
C592        C  0.46185183  0.23693306  0.69571083     0.15300
C593        C  0.43885050  0.20292275  0.69290174     0.02200
C594        C  0.40814107  0.18822782  0.70174819    -0.15600
C595        C  0.39979227  0.20669819  0.71338260    -0.10400
C596        C  0.42213589  0.24113720  0.71540746     0.08900
C597        C  0.49546619  0.25357741  0.68757930     0.10000
S598        S  0.44736509  0.17683101  0.67849320    -0.24700
H599        H  0.39100268  0.16194855  0.69992119     0.20200
S600        S  0.41293034  0.26824581  0.72847509    -0.30400
H601        H  0.47047197  0.28178538  0.70893894     0.10500
C602        C  0.50496567  0.27923843  0.67485320     0.03700
C603        C  0.03719730  0.29475282  0.66812100    -0.12700
C604        C  0.06012343  0.28488209  0.67325485    -0.08400
C605        C  0.05084571  0.25992728  0.68649944     0.07200
C606        C  0.01866759  0.24457902  0.69367057    -0.13500
S607        S  0.47572335  0.29151325  0.66714858    -0.30400
H608        H  0.04404678  0.31358138  0.65784992     0.11400
S609        S  0.07909854  0.24736526  0.69526902    -0.27500
H610        H  0.01162326  0.22545083  0.70380193     0.08700
H611        H  0.37829041  0.24831616  0.72766138     0.27100
H612        H  0.49794763  0.31795525  0.65614306     0.21900
H613        H  0.10748277  0.27912689  0.69419628     0.27200
H614        H  0.46806023  0.20198183  0.66640448     0.16000
C615        C  0.22548249  0.48575536  0.69169691    -0.11200
C616        C  0.25692432  0.00903538  0.68586596     0.15300
C617        C  0.27338363  0.50007838  0.67272503     0.02200
C618        C  0.25702467  0.46784313  0.66574952    -0.15600
C619        C  0.22460015  0.44456216  0.67116687    -0.10400
C620        C  0.20884440  0.45364734  0.68448059     0.08900
C621        C  0.27403513  0.04205411  0.69465847     0.10000
S622        S  0.31376025  0.02829592  0.66415334    -0.24700
H623        H  0.26924317  0.46132721  0.65541634     0.20200
S624        S  0.16817397  0.42524974  0.69330427    -0.30400
H625        H  0.21353034  0.49242843  0.70210952     0.10500
C626        C  0.26275354  0.06498042  0.69263973     0.03700
C627        C  0.27959370  0.09571713  0.70148745    -0.12700
C628        C  0.30699502  0.10365075  0.71261765    -0.08400
C629        C  0.31915204  0.08125497  0.71392011     0.07200
C630        C  0.30225836  0.05058718  0.70518672    -0.13500
S631        S  0.22706369  0.05525113  0.67875422    -0.30400
H632        H  0.27071340  0.11316143  0.70026996     0.11400
S633        S  0.35618519  0.09024846  0.72624637    -0.27500
H634        H  0.31122047  0.03318242  0.70656350     0.08700
H635        H  0.17191574  0.39706503  0.69234375     0.27100
H636        H  0.22530668  0.08387490  0.68287160     0.21900
H637        H  0.37108482  0.12487881  0.72530379     0.27200
H638        H  0.31105460  0.05698924  0.66581570     0.16000
C639        C  0.24919940  0.20115959  0.70508987    -0.11200
C640        C  0.26888665  0.22931764  0.69459054     0.15300
C641        C  0.30312439  0.24043170  0.69259969     0.02200
C642        C  0.31705506  0.22393321  0.70172152    -0.15600
C643        C  0.29747269  0.19636590  0.71267307    -0.10400
C644        C  0.26286301  0.18411408  0.71376976     0.08900
C645        C  0.25281202  0.24663483  0.68623695     0.10000
S646        S  0.33032219  0.27556742  0.67882319    -0.24700
H647        H  0.34350845  0.23315808  0.70061527     0.20200
S648        S  0.23445256  0.14680449  0.72573586    -0.30400
H649        H  0.22284459  0.19232509  0.70648000     0.10500
C650        C  0.22788486  0.23092049  0.67305239     0.03700
C651        C  0.21204575  0.24743101  0.66611378    -0.12700
C652        C  0.22087283  0.27958539  0.67185679    -0.08400
C653        C  0.24571826  0.29520295  0.68519451     0.07200
C654        C  0.26144982  0.27859902  0.69219284    -0.13500
S655        S  0.21726483  0.19043834  0.66442346    -0.30400
H656        H  0.19341969  0.23566617  0.65569350     0.11400
S657        S  0.25759601  0.33557996  0.69430014    -0.27500
H658        H  0.28019381  0.29042383  0.70257364     0.08700
H659        H  0.25501556  0.13277785  0.72647088     0.27100
H660        H  0.19224305  0.18701246  0.65244984     0.21900
H661        H  0.22564419  0.33183231  0.69316967     0.27200
H662        H  0.30602314  0.27164817  0.66620646     0.16000
C663        C  0.04717556  0.12510661  0.55754852    -0.11200
C664        C  0.07806146  0.15347816  0.55468767     0.15300
C665        C  0.09587894  0.15656591  0.53870280     0.02200
C666        C  0.08226593  0.13108455  0.52590566    -0.15600
C667        C  0.05152919  0.10235472  0.52891195    -0.10400
C668        C  0.03346943  0.09980468  0.54476352     0.08900
C669        C  0.09003196  0.18004486  0.56826676     0.10000
S670        S  0.13604841  0.19210995  0.53391287    -0.24700
H671        H  0.09623338  0.13322605  0.51380709     0.20200
S672        S  0.49212183  0.06652435  0.54827312    -0.30400
H673        H  0.03322905  0.12311115  0.56963764     0.10500
C674        C  0.08922874  0.20940580  0.56496908     0.03700
C675        C  0.10196496  0.23453592  0.57792540    -0.12700
C676        C  0.11512411  0.23080078  0.59424246    -0.08400
C677        C  0.11483148  0.20076980  0.59775326     0.07200
C678        C  0.10195729  0.17558350  0.58477488    -0.13500
S679        S  0.07148055  0.21463707  0.54440864    -0.30400
H680        H  0.10165798  0.25731486  0.57534606     0.11400
S681        S  0.13200993  0.19368097  0.61792483    -0.27500
H682        H  0.10214455  0.15270899  0.58730723     0.08700
H683        H  0.48168343  0.06197117  0.53018716     0.27100
H684        H  0.07613508  0.24626914  0.54839052     0.21900
H685        H  0.16002098  0.22575185  0.61848012     0.27200
H686        H  0.14611413  0.20076876  0.55188978     0.16000
C687        C  0.34276469  0.41358141  0.53732360    -0.11200
C688        C  0.34832680  0.42936430  0.55408786     0.15300
C689        C  0.37976999  0.45673802  0.55807905     0.02200
C690        C  0.40502695  0.46762685  0.54526641    -0.15600
C691        C  0.39963374  0.45200677  0.52838101    -0.10400
C692        C  0.36812613  0.42429704  0.52452378     0.08900
C693        C  0.32126474  0.41565864  0.56741652     0.10000
S694        S  0.38920410  0.47879467  0.57921187    -0.24700
H695        H  0.42905288  0.48887883  0.54845849     0.20200
S696        S  0.35924593  0.40022565  0.50416646    -0.30400
H697        H  0.31871095  0.39213265  0.53441792     0.10500
C698        C  0.29339125  0.41974563  0.56542517     0.03700
C699        C  0.26762136  0.40523643  0.57801130    -0.12700
C700        C  0.26924606  0.38679161  0.59256640    -0.08400
C701        C  0.29724861  0.38267100  0.59446780     0.07200
C702        C  0.32313494  0.39748575  0.58198289    -0.13500
S703        S  0.29107467  0.44409671  0.54710755    -0.30400
H704        H  0.24617957  0.40845495  0.57661419     0.11400
S705        S  0.30055674  0.35729021  0.61178426    -0.27500
H706        H  0.34450241  0.39410331  0.58332406     0.08700
H707        H  0.38993054  0.40097944  0.50388554     0.27100
H708        H  0.25929225  0.43905505  0.55117330     0.21900
H709        H  0.26678661  0.33258200  0.61131862     0.27200
H710        H  0.35701838  0.47332773  0.58243203     0.16000
C711        C  0.04487867  0.41789892  0.55544291    -0.11200
C712        C  0.07569109  0.42027978  0.55243967     0.15300
C713        C  0.09224645  0.43273710  0.53589475     0.02200
C714        C  0.07801654  0.44364958  0.52288710    -0.15600
C715        C  0.04775184  0.44257268  0.52621514    -0.10400
C716        C  0.03048376  0.42836593  0.54245405     0.08900
C717        C  0.08847488  0.40723497  0.56642363     0.10000
S718        S  0.13165818  0.43582515  0.53073263    -0.24700
H719        H  0.09132584  0.45437015  0.51048055     0.20200
S720        S  0.48730149  0.41931151  0.54644295    -0.30400
H721        H  0.03171045  0.40727274  0.56790720     0.10500
C722        C  0.10385656  0.42552257  0.58212060     0.03700
C723        C  0.11504822  0.41166236  0.59521443    -0.12700
C724        C  0.11085882  0.37984961  0.59284247    -0.08400
C725        C  0.09381284  0.36102257  0.57745782     0.07200
C726        C  0.08330600  0.37513730  0.56431507    -0.13500
S727        S  0.11026917  0.46687528  0.58509859    -0.30400
H728        H  0.12813555  0.42603180  0.60697344     0.11400
S729        S  0.08375462  0.31855998  0.57400583    -0.27500
H730        H  0.07050525  0.36082583  0.55246615     0.08700
H731        H  0.47706613  0.41388481  0.52832039     0.27100
H732        H  0.12522033  0.47264992  0.60219706     0.21900
H733        H  0.07898129  0.30989302  0.59235421     0.27200
H734        H  0.14333445  0.43998993  0.54854005     0.16000
Zn735      Zn  0.14352502  0.78906930  0.64346385     1.49700
Zn736      Zn  0.16761722  0.83406387  0.60861733     1.49400
Zn737      Zn  0.14509989  0.85893341  0.64262679     1.49100
Zn738      Zn  0.21377182  0.85761929  0.64287722     1.49500
O739        O  0.16750075  0.83492499  0.63466014    -1.84000
O740        O  0.12663669  0.75578086  0.62301113    -0.74600
O741        O  0.14151156  0.85277677  0.59827812    -0.74400
O742        O  0.10520584  0.82935831  0.65785226    -0.73900
O743        O  0.14706554  0.78846512  0.59915353    -0.74600
O744        O  0.10362035  0.78076728  0.65835661    -0.74200
O745        O  0.12729654  0.87297074  0.62152350    -0.74800
O746        O  0.22375045  0.89835882  0.65723503    -0.74200
O747        O  0.21282268  0.85918126  0.59821065    -0.75000
O748        O  0.17663259  0.89995437  0.65668700    -0.74300
O749        O  0.24616186  0.87346070  0.62196565    -0.74800
O750        O  0.22293935  0.82675794  0.65775733    -0.74700
O751        O  0.17440338  0.77949262  0.65792377    -0.74500
C752        C  0.13098147  0.75978041  0.60608373     0.77300
C753        C  0.12705978  0.86747336  0.60471805     0.77800
C754        C  0.09143176  0.79903932  0.66267393     0.76700
C755        C  0.20697536  0.91231065  0.66134122     0.77100
C756        C  0.24173377  0.87271432  0.60501545     0.78200
C757        C  0.20501610  0.79639315  0.66224828     0.77300
C758        C  0.33423676  0.66862608  0.71604385     0.45600
H759        H  0.33475903  0.66890775  0.70108172    -0.03400
C760        C  0.33289812  0.66791601  0.75120563     0.45700
H761        H  0.33228809  0.66765098  0.76613500    -0.03400
C762        C  0.31944169  0.63377799  0.72414783    -0.17100
C763        C  0.36862572  0.68870325  0.72466900    -0.16900
C764        C  0.31377854  0.68301524  0.72406642    -0.17200
C765        C  0.31780334  0.63295191  0.74267484    -0.17200
C766        C  0.36832743  0.68777527  0.74319588    -0.16800
C767        C  0.31352932  0.68351082  0.74257876    -0.17100
Zn768      Zn  0.19073536  0.81339157  0.84356126     1.49700
Zn769      Zn  0.12022647  0.80837378  0.84354113     1.49400
Zn770      Zn  0.18585357  0.87940566  0.84406722     1.49100
Zn771      Zn  0.16671400  0.83526499  0.80785058     1.49500
O772        O  0.16587811  0.83414230  0.83451941    -1.84000
O773        O  0.16269302  0.77330389  0.85895843    -0.74600
O774        O  0.10806103  0.83580606  0.85944783    -0.74400
O775        O  0.22596373  0.89091475  0.85937538    -0.73900
O776        O  0.11312233  0.76931371  0.85858894    -0.74600
O777        O  0.22921748  0.84489750  0.85900146    -0.74200
O778        O  0.15398886  0.88497810  0.86006712    -0.74800
O779        O  0.18989350  0.88364719  0.79879463    -0.74200
O780        O  0.08814163  0.79098446  0.82301279    -0.75000
O781        O  0.20043746  0.91293670  0.82406314    -0.74300
O782        O  0.11879833  0.81077866  0.79817545    -0.74800
O783        O  0.19189023  0.81237261  0.79807231    -0.74700
O784        O  0.20839574  0.79869349  0.82314054    -0.74500
C785        C  0.13231604  0.75872486  0.86368895     0.77300
C786        C  0.12413040  0.86569211  0.86498505     0.77800
C787        C  0.24002959  0.87465485  0.86417620     0.76700
C788        C  0.20104494  0.91143706  0.80696000     0.77100
C789        C  0.09065817  0.79398166  0.80597498     0.78200
C790        C  0.20737871  0.79969548  0.80604588     0.77300
Zn791      Zn  0.33342158  0.66551293  0.30861432     1.49700
Zn792      Zn  0.31447090  0.62306549  0.34565766     1.49400
Zn793      Zn  0.38101699  0.69327685  0.34375865     1.49100
Zn794      Zn  0.31134086  0.68978063  0.34407074     1.49500
O795        O  0.33507956  0.66780719  0.33525315    -1.84000
O796        O  0.31295253  0.61676086  0.30052173    -0.74600
O797        O  0.34650185  0.61731415  0.36137078    -0.74400
O798        O  0.41242412  0.71158911  0.32288685    -0.73900
O799        O  0.29965217  0.58851212  0.32626351    -0.74600
O800        O  0.38098036  0.69234213  0.29827999    -0.74200
O801        O  0.39340534  0.66522098  0.35892464    -0.74800
O802        O  0.33988440  0.72980032  0.35936391    -0.74200
O803        O  0.27553423  0.61349937  0.36161079    -0.75000
O804        O  0.38845891  0.73152121  0.35975153    -0.74300
O805        O  0.27381039  0.66021234  0.36017968    -0.74800
O806        O  0.29184402  0.70238570  0.32375628    -0.74700
O807        O  0.30464340  0.68468359  0.29882745    -0.74500
C808        C  0.30107325  0.58933841  0.30914603     0.77300
C809        C  0.37697780  0.63609039  0.36539087     0.77800
C810        C  0.40940914  0.70943848  0.30582392     0.76700
C811        C  0.36980920  0.74281828  0.36476655     0.77100
C812        C  0.26299457  0.63118948  0.36640392     0.78200
C813        C  0.28997474  0.69824059  0.30678397     0.77300
C814        C  0.16891776  0.83457095  0.21718066     0.45600
H815        H  0.16945205  0.83474814  0.20223347    -0.03400
C816        C  0.16671590  0.83343131  0.25233780     0.45700
H817        H  0.16537314  0.83284356  0.26725534    -0.03400
C818        C  0.13339510  0.81680082  0.22487096    -0.17100
C819        C  0.18620405  0.81699870  0.22581562    -0.16900
C820        C  0.18611738  0.86941711  0.22570467    -0.17200
C821        C  0.13211308  0.81640819  0.24332410    -0.17200
C822        C  0.18440549  0.81553112  0.24436803    -0.16800
C823        C  0.18531458  0.86893856  0.24425375    -0.17100
Zn824      Zn  0.28901906  0.64453030  0.14097403     1.49700
Zn825      Zn  0.35763293  0.64292815  0.14223145     1.49400
Zn826      Zn  0.33788020  0.66855436  0.10769131     1.49100
Zn827      Zn  0.35863850  0.71303246  0.14319328     1.49500
O828        O  0.33585289  0.66738441  0.13379577    -1.84000
O829        O  0.27840434  0.60416999  0.15576951    -0.74600
O830        O  0.37621178  0.62846239  0.12164145    -0.74400
O831        O  0.29337714  0.64287573  0.09632747    -0.73900
O832        O  0.32513162  0.60186089  0.15607083    -0.74600
O833        O  0.25835825  0.62707003  0.11928999    -0.74200
O834        O  0.36507899  0.65030085  0.09802329    -0.74800
O835        O  0.37480613  0.74652144  0.12273694    -0.74200
O836        O  0.39784968  0.67275265  0.15719742    -0.75000
O837        O  0.35868547  0.71425230  0.09848255    -0.74300
O838        O  0.39980584  0.72159015  0.15744887    -0.74800
O839        O  0.32675814  0.72178709  0.15795099    -0.74700
O840        O  0.27810385  0.67516696  0.15518814    -0.74500
C841        C  0.29447181  0.58958365  0.16005637     0.77300
C842        C  0.37804646  0.63442120  0.10483371     0.77800
C843        C  0.26396660  0.62769149  0.10246295     0.76700
C844        C  0.37290738  0.74275422  0.10570995     0.77100
C845        C  0.41242416  0.70343329  0.16134884     0.78200
C846        C  0.29552606  0.70484678  0.16096996     0.77300
Zn847      Zn  0.00155742  0.50076283  0.01033278     1.49700
Zn848      Zn  0.48019554  0.52654483  0.97555833     1.49400
Zn849      Zn  0.04644671  0.51974154  0.97572424     1.49100
Zn850      Zn  0.47314249  0.95289978  0.97683934     1.49500
O851        O  0.00045961  0.49969138  0.98438227    -1.84000
O852        O  0.48326900  0.52836994  0.01985085    -0.74600
O853        O  0.01101246  0.56150754  0.95912711    -0.74400
O854        O  0.08028269  0.53619849  0.99613807    -0.73900
O855        O  0.46672935  0.54585173  0.99631688    -0.74600
O856        O  0.04733700  0.52008035  0.02008076    -0.74200
O857        O  0.05701948  0.55804923  0.95919489    -0.74800
O858        O  0.00078360  0.94050948  0.96194553    -0.74200
O859        O  0.43949253  0.99660009  0.96030516    -0.75000
O860        O  0.05072075  0.98598241  0.96122986    -0.74300
O861        O  0.43555369  0.94693916  0.96077993    -0.74800
O862        O  0.45457164  0.92098946  0.99802870    -0.74700
O863        O  0.47412522  0.95600234  0.02096373    -0.74500
C864        C  0.47008388  0.54423757  0.01325950     0.77300
C865        C  0.04044149  0.57131650  0.95357930     0.77800
C866        C  0.07611606  0.53342748  0.01313409     0.76700
C867        C  0.03077942  0.95610939  0.95652695     0.77100
C868        C  0.42539278  0.96634473  0.95536590     0.78200
C869        C  0.45737477  0.92664921  0.01490704     0.77300
Zn870      Zn  0.02321692  0.97716961  0.47647093     1.49700
Zn871      Zn  0.00310769  0.50057761  0.51167350     1.49400
Zn872      Zn  0.02679892  0.54781928  0.47815215     1.49100
Zn873      Zn  0.45567419  0.98049947  0.47743699     1.49500
O874        O  0.00235993  0.50141148  0.48578545    -1.84000
O875        O  0.03776891  0.95739334  0.49661348    -0.74600
O876        O  0.02608837  0.54533366  0.52227115    -0.74400
O877        O  0.06490738  0.55586249  0.46230400    -0.73900
O878        O  0.02374627  0.97595378  0.52063763    -0.74600
O879        O  0.06323945  0.50723320  0.46098580    -0.74200
O880        O  0.04335665  0.57997387  0.49909251    -0.74800
O881        O  0.44722069  0.51216789  0.46281497    -0.74200
O882        O  0.45789254  0.97872347  0.52175358    -0.75000
O883        O  0.49675229  0.55804820  0.46270201    -0.74300
O884        O  0.42356424  0.96457951  0.49851541    -0.74800
O885        O  0.44479885  0.94149115  0.46126618    -0.74700
O886        O  0.49171003  0.93957888  0.46023445    -0.74500
C887        C  0.03553401  0.95918569  0.51363360     0.77300
C888        C  0.04009953  0.57454003  0.51596683     0.77800
C889        C  0.07583657  0.53752023  0.45626449     0.76700
C890        C  0.46642412  0.54203607  0.45785683     0.77100
C891        C  0.42866216  0.96564532  0.51541916     0.78200
C892        C  0.46164921  0.92864884  0.45542514     0.77300
C893        C  0.13072028  0.54114117  0.05280422    -0.11200
C894        C  0.15657493  0.57395843  0.05094654     0.15300
C895        C  0.15691133  0.59291540  0.03600435     0.02200
C896        C  0.13127756  0.57858033  0.02324602    -0.15600
C897        C  0.10492954  0.54593638  0.02534585    -0.10400
C898        C  0.10504385  0.52690188  0.04017111     0.08900
C899        C  0.18350021  0.58701863  0.06444702     0.10000
S900        S  0.18887727  0.63555361  0.03265440    -0.24700
H901        H  0.13116721  0.59342041  0.01203146     0.20200
S902        S  0.07146152  0.98398081  0.04439491    -0.30400
H903        H  0.13075930  0.52642846  0.06410404     0.10500
C904        C  0.17953389  0.59793763  0.08145953     0.03700
C905        C  0.20581373  0.61016780  0.09386681    -0.12700
C906        C  0.23585617  0.61126765  0.08966744    -0.08400
C907        C  0.23887943  0.59845822  0.07288273     0.07200
C908        C  0.21297247  0.58714872  0.06037387    -0.13500
S909        S  0.14142869  0.59736918  0.08709865    -0.30400
H910        H  0.20328642  0.61978890  0.10667142     0.11400
S911        S  0.27427241  0.59431560  0.06683747    -0.27500
H912        H  0.21549214  0.57772208  0.04747959     0.08700
H913        H  0.06559898  0.97540925  0.02605580     0.27100
H914        H  0.14959260  0.60735970  0.10514376     0.21900
H915        H  0.27887561  0.58525105  0.08422822     0.27200
H916        H  0.19666167  0.64355534  0.05091927     0.16000
C917        C  0.41528730  0.79812745  0.06587409    -0.11200
C918        C  0.40610128  0.82235034  0.06806959     0.15300
C919        C  0.38771355  0.82157809  0.08339202     0.02200
C920        C  0.37882968  0.79641743  0.09616974    -0.15600
C921        C  0.38734509  0.77169011  0.09371897    -0.10400
C922        C  0.40643248  0.77304152  0.07858679     0.08900
C923        C  0.41826765  0.84928865  0.05471877     0.10000
S924        S  0.37453593  0.85158181  0.08728840    -0.24700
H925        H  0.36395730  0.79529762  0.10767747     0.20200
S926        S  0.42098955  0.74401528  0.07495798    -0.30400
H927        H  0.43005564  0.79919400  0.05432241     0.10500
C928        C  0.44610593  0.88040503  0.05842933     0.03700
C929        C  0.45788644  0.90497249  0.04517766    -0.12700
C930        C  0.44243934  0.89924196  0.02818762    -0.08400
C931        C  0.41410246  0.86793986  0.02464782     0.07200
C932        C  0.40271612  0.84316791  0.03785192    -0.13500
S933        S  0.46730446  0.88846650  0.07985139    -0.30400
H934        H  0.47974941  0.92869278  0.04801413     0.11400
S935        S  0.39058795  0.85835404  0.00403697    -0.27500
H936        H  0.38121090  0.81907444  0.03509854     0.08700
H937        H  0.42421142  0.73862906  0.09330691     0.27100
H938        H  0.49216360  0.92133324  0.07622360     0.21900
H939        H  0.39175363  0.88915480  0.00311050     0.27200
H940        H  0.37351923  0.85954836  0.06913977     0.16000
C941        C  0.41104522  0.58351181  0.08190127    -0.11200
C942        C  0.42698083  0.60362353  0.06694852     0.15300
C943        C  0.42859528  0.63452909  0.06517702     0.02200
C944        C  0.41287458  0.64399714  0.07793554    -0.15600
C945        C  0.39580116  0.62345296  0.09264369    -0.10400
C946        C  0.39522137  0.59292917  0.09469565     0.08900
C947        C  0.43924387  0.59044534  0.05271737     0.10000
S948        S  0.44967233  0.66257762  0.04676772    -0.24700
H949        H  0.41390906  0.66767183  0.07631229     0.20200
S950        S  0.37273918  0.56380703  0.11241697    -0.30400
H951        H  0.40971138  0.55964334  0.08317238     0.10500
C952        C  0.46934898  0.59047890  0.05468010     0.03700
C953        C  0.47908176  0.57597214  0.04128227    -0.12700
C954        C  0.45918948  0.56122071  0.02598633    -0.08400
C955        C  0.42909119  0.56157293  0.02400412     0.07200
C956        C  0.41968354  0.57657857  0.03729241    -0.13500
S957        S  0.49538443  0.60917808  0.07418798    -0.30400
H958        H  0.50222038  0.57584818  0.04278817     0.11400
S959        S  0.40058513  0.54145370  0.00563364    -0.27500
H960        H  0.39636594  0.57643155  0.03593848     0.08700
H961        H  0.34449703  0.56746439  0.11106878     0.27100
H962        H  0.01966647  0.60035164  0.06980823     0.21900
H963        H  0.40442713  0.51328948  0.00544104     0.27200
H964        H  0.47354539  0.65288051  0.04392569     0.16000
C965        C  0.50054836  0.72519549  0.17441971    -0.11200
C966        C  0.00648176  0.74758965  0.18831977     0.15300
C967        C  0.48382393  0.75775995  0.19255515     0.02200
C968        C  0.45310687  0.74282723  0.18363259    -0.15600
C969        C  0.44540110  0.71860453  0.17032311    -0.10400
C970        C  0.46973388  0.70995307  0.16561878     0.08900
C971        C  0.04023809  0.76449457  0.19647835     0.10000
S972        S  0.49031913  0.78707408  0.21015098    -0.24700
H973        H  0.43479022  0.74968003  0.18739313     0.20200
S974        S  0.46400478  0.68115661  0.14781890    -0.30400
H975        H  0.01796028  0.71760884  0.17097239     0.10500
C976        C  0.05127002  0.74734211  0.20760962     0.03700
C977        C  0.08258130  0.76479296  0.21586006    -0.12700
C978        C  0.10291500  0.79921543  0.21356788    -0.08400
C979        C  0.09221196  0.81612661  0.20200490     0.07200
C980        C  0.06128472  0.79857626  0.19341598    -0.13500
S981        S  0.02501427  0.70354361  0.21198470    -0.30400
H982        H  0.09095917  0.75180695  0.22460942     0.11400
S983        S  0.11583031  0.86025225  0.19857046    -0.27500
H984        H  0.05297696  0.81180847  0.18478940     0.08700
H985        H  0.44832225  0.69269512  0.13597754     0.27100
H986        H  0.04426481  0.70150999  0.22603827     0.21900
H987        H  0.12343157  0.86735795  0.21689544     0.27200
H988        H  0.00938883  0.77819517  0.22126548     0.16000
C989        C  0.24023864  0.94032895  0.19343540    -0.11200
C990        C  0.23006716  0.96335780  0.19750589     0.15300
C991        C  0.20379481  0.95440856  0.20980245     0.02200
C992        C  0.18976289  0.92362636  0.21847679    -0.15600
C993        C  0.20060158  0.90082396  0.21490853    -0.10400
C994        C  0.22558496  0.90907086  0.20178577     0.08900
C995        C  0.24678703  0.99602976  0.18826810     0.10000
S996        S  0.18666688  0.98080682  0.21482124    -0.24700
H997        H  0.17023784  0.91749576  0.22824020     0.20200
S998        S  0.23987580  0.88072936  0.19579557    -0.30400
H999        H  0.25981645  0.94704459  0.18362282     0.10500
C1000       C  0.27939814  0.51977741  0.19186817     0.03700
C1001       C  0.29464719  0.54997664  0.18245729    -0.12700
C1002       C  0.27702568  0.55731459  0.16961063    -0.08400
C1003       C  0.24336812  0.53343025  0.16603404     0.07200
C1004       C  0.22815896  0.50346174  0.17555011    -0.13500
S1005       S  0.30263532  0.51160443  0.20862841    -0.30400
H1006       H  0.32035645  0.56811554  0.18522546     0.11400
S1007       S  0.21894689  0.53855004  0.14876903    -0.27500
H1008       H  0.20332476  0.98489304  0.17269586     0.08700
H1009       H  0.26374245  0.90103958  0.18301632     0.27100
H1010       H  0.33238174  0.54215764  0.20712924     0.21900
H1011       H  0.24487125  0.55227192  0.13606732     0.27200
H1012       H  0.21511822  0.51085591  0.21266706     0.16000
C1013       C  0.25023907  0.79508057  0.20825669    -0.11200
C1014       C  0.23114165  0.76960264  0.19602530     0.15300
C1015       C  0.19763852  0.76086779  0.19305321     0.02200
C1016       C  0.18408672  0.77755357  0.20244469    -0.15600
C1017       C  0.20315296  0.80286756  0.21481994    -0.10400
C1018       C  0.23696367  0.81207771  0.21743562     0.08900
C1019       C  0.24717329  0.75281998  0.18675472     0.10000
S1020       S  0.17075978  0.72847218  0.17767549    -0.24700
H1021       H  0.15817020  0.77014971  0.20042929     0.20200
S1022       S  0.26504217  0.84547778  0.23199092    -0.30400
H1023       H  0.27594478  0.80196167  0.21057924     0.10500
C1024       C  0.27336914  0.77009699  0.17442543     0.03700
C1025       C  0.28915799  0.75406924  0.16665183    -0.12700
C1026       C  0.27893817  0.72074756  0.17058032    -0.08400
C1027       C  0.25243182  0.70332192  0.18283593     0.07200
C1028       C  0.23705848  0.71963989  0.19088279    -0.13500
S1029       S  0.28593610  0.81228310  0.16806388    -0.30400
H1030       H  0.30905771  0.76731498  0.15708191     0.11400
S1031       S  0.23904389  0.66087835  0.18901277    -0.27500
H1032       H  0.21728408  0.70671599  0.20056445     0.08700
H1033       H  0.24769894  0.86294087  0.23174317     0.27100
H1034       H  0.31036210  0.81634513  0.15551683     0.21900
H1035       H  0.21228602  0.65591449  0.20000677     0.27200
H1036       H  0.19584658  0.73227933  0.16570035     0.16000
C1037       C  0.27639381  0.50018984  0.29686355    -0.11200
C1038       C  0.25689697  0.99539338  0.28141070     0.15300
C1039       C  0.25413322  0.52189981  0.27452250     0.02200
C1040       C  0.26942325  0.55254031  0.28348951    -0.15600
C1041       C  0.28811786  0.55746126  0.29921334    -0.10400
C1042       C  0.29224432  0.53100450  0.30566864     0.08900
C1043       C  0.23944665  0.96195070  0.27299822     0.10000
S1044       S  0.23044309  0.51821661  0.25460530    -0.24700
H1045       H  0.26607007  0.57249712  0.27834554     0.20200
S1046       S  0.31811743  0.53511101  0.32474299    -0.30400
H1047       H  0.27944877  0.98021308  0.30183361     0.10500
C1048       C  0.25584397  0.95160621  0.26092367     0.03700
C1049       C  0.23780011  0.92084551  0.25220085    -0.12700
C1050       C  0.20356633  0.89992322  0.25528878    -0.08400
C1051       C  0.18750665  0.91012433  0.26777428     0.07200
C1052       C  0.20556130  0.94081199  0.27654881    -0.13500
S1053       S  0.29946961  0.97818869  0.25610009    -0.30400
H1054       H  0.25026964  0.91324681  0.24263145     0.11400
S1055       S  0.14360708  0.88647194  0.27187322    -0.27500
H1056       H  0.19285467  0.94882521  0.28575889     0.08700
H1057       H  0.34232682  0.56825687  0.32114434     0.27100
H1058       H  0.30191577  0.95782001  0.24289429     0.21900
H1059       H  0.13610577  0.88189615  0.25342873     0.27200
H1060       H  0.23697641  0.99619269  0.24568071     0.16000
C1061       C  0.49640968  0.77353128  0.29064350    -0.11200
C1062       C  0.00177392  0.75645807  0.27699302     0.15300
C1063       C  0.47621464  0.72490760  0.27155675     0.02200
C1064       C  0.44563184  0.71043958  0.28068777    -0.15600
C1065       C  0.44011444  0.72717014  0.29482418    -0.10400
C1066       C  0.46560141  0.75962560  0.29932128     0.08900
C1067       C  0.03522333  0.77225549  0.26845592     0.10000
S1068       S  0.97857842  0.70309074  0.25237836    -0.24700
H1069       H  0.42629245  0.68567779  0.27698534     0.20200
S1070       S  0.46013853  0.78514982  0.31562466    -0.30400
H1071       H  0.51597909  0.79804320  0.29457316     0.10500
C1072       C  0.04768691  0.80179237  0.25833075     0.03700
C1073       C  0.07946216  0.81592163  0.25076256    -0.12700
C1074       C  0.09990324  0.80194954  0.25336742    -0.08400
C1075       C  0.08771639  0.77271357  0.26371969     0.07200
C1076       C  0.05551635  0.75813357  0.27110332    -0.13500
S1077       S  0.02427776  0.82264021  0.25446050    -0.30400
H1078       H  0.08800432  0.83771089  0.24239061     0.11400
S1079       S  0.11219687  0.75279327  0.26669755    -0.27500
H1080       H  0.04596886  0.73559436  0.27896142     0.08700
H1081       H  0.42604303  0.77222673  0.31222322     0.27100
H1082       H  0.99274796  0.79387620  0.25438929     0.21900
H1083       H  0.08914675  0.72623816  0.27735256     0.27200
H1084       H  0.00133980  0.73133458  0.24268425     0.16000
C1085       C  0.22624300  0.72394904  0.29516729    -0.11200
C1086       C  0.23924139  0.74166005  0.27918139     0.15300
C1087       C  0.26738680  0.74243043  0.27130770     0.02200
C1088       C  0.28245373  0.72641550  0.27997391    -0.15600
C1089       C  0.27028430  0.70989075  0.29644778    -0.10400
C1090       C  0.24096748  0.70766350  0.30367991     0.08900
C1091       C  0.22278477  0.75902070  0.27120575     0.10000
S1092       S  0.28566113  0.76373060  0.25044929    -0.24700
H1093       H  0.30470301  0.72814407  0.27421083     0.20200
S1094       S  0.22044845  0.68368659  0.32349091    -0.30400
H1095       H  0.20419498  0.72259262  0.30100174     0.10500
C1096       C  0.20052326  0.74545144  0.25668635     0.03700
C1097       C  0.18651935  0.76339240  0.24923158    -0.12700
C1098       C  0.19565813  0.79563001  0.25523024    -0.08400
C1099       C  0.21663115  0.80825190  0.27050613     0.07200
C1100       C  0.22955463  0.78966438  0.27841115    -0.13500
S1101       S  0.19037513  0.70554797  0.24744293    -0.30400
H1102       H  0.16895089  0.75259157  0.23828038     0.11400
S1103       S  0.22959374  0.84846268  0.28000491    -0.27500
H1104       H  0.24620282  0.79980880  0.28982819     0.08700
H1105       H  0.22848259  0.65870545  0.32019343     0.27100
H1106       H  0.17038585  0.70556036  0.23319557     0.21900
H1107       H  0.23753703  0.86431751  0.26326710     0.27200
H1108       H  0.27404648  0.78639996  0.25097429     0.16000
C1109       C  0.20540418  0.62459058  0.40456633    -0.11200
C1110       C  0.18286720  0.59040627  0.40465468     0.15300
C1111       C  0.18616984  0.56984770  0.39180997     0.02200
C1112       C  0.21279503  0.58370681  0.37972742    -0.15600
C1113       C  0.23566467  0.61793772  0.37969794    -0.10400
C1114       C  0.23183472  0.63856650  0.39239605     0.08900
C1115       C  0.15616964  0.57713973  0.41828913     0.10000
S1116       S  0.15694729  0.52598199  0.38986862    -0.24700
H1117       H  0.21519176  0.56770031  0.36996620     0.20200
S1118       S  0.26053068  0.68251860  0.39452882    -0.30400
H1119       H  0.20281619  0.64040948  0.41438567     0.10500
C1120       C  0.15528167  0.55645094  0.43241389     0.03700
C1121       C  0.12858980  0.54351067  0.44455458    -0.12700
C1122       C  0.10325526  0.55153224  0.44308741    -0.08400
C1123       C  0.10464399  0.57277591  0.42903300     0.07200
C1124       C  0.13120861  0.58555804  0.41696409    -0.13500
S1125       S  0.18866872  0.54751373  0.43533866    -0.30400
H1126       H  0.12769161  0.52755151  0.45541966     0.11400
S1127       S  0.07259514  0.58323939  0.42510680    -0.27500
H1128       H  0.13198806  0.60151974  0.40610583     0.08700
H1129       H  0.28917327  0.67965426  0.39274173     0.27100
H1130       H  0.17574588  0.52745514  0.45072623     0.21900
H1131       H  0.04599544  0.55134592  0.42901988     0.27200
H1132       H  0.12907861  0.52735519  0.39609697     0.16000
C1133       C  0.42686281  0.82093718  0.39131757    -0.11200
C1134       C  0.40574570  0.81904265  0.40529323     0.15300
C1135       C  0.37255863  0.79270546  0.40554580     0.02200
C1136       C  0.36122406  0.76895706  0.39178020    -0.15600
C1137       C  0.38247217  0.77049706  0.37786825    -0.10400
C1138       C  0.41558756  0.79719006  0.37759183     0.08900
C1139       C  0.41878188  0.84596836  0.41880325     0.10000
S1140       S  0.34368432  0.78775880  0.42314625    -0.24700
H1141       H  0.33585073  0.74848225  0.39226659     0.20200
S1142       S  0.44416987  0.80338274  0.35968467    -0.30400
H1143       H  0.45220188  0.84152129  0.39092704     0.10500
C1144       C  0.44094369  0.84804334  0.43236596     0.03700
C1145       C  0.45435936  0.87516281  0.44421040    -0.12700
C1146       C  0.44622976  0.90041983  0.44269338    -0.08400
C1147       C  0.42411388  0.89826433  0.42892032     0.07200
C1148       C  0.41030041  0.87086120  0.41734197    -0.13500
S1149       S  0.45172168  0.81588100  0.43470260    -0.30400
H1150       H  0.47117540  0.87666641  0.45476018     0.11400
S1151       S  0.41426061  0.93055056  0.42455794    -0.27500
H1152       H  0.39369390  0.86947763  0.40667603     0.08700
H1153       H  0.41983035  0.79222446  0.34607999     0.27100
H1154       H  0.47416124  0.83046788  0.44908482     0.21900
H1155       H  0.44677665  0.95686894  0.42757517     0.27200
H1156       H  0.36746435  0.80307354  0.43685443     0.16000
C1157       C  0.43177868  0.63153879  0.40231233    -0.11200
C1158       C  0.41806621  0.59714217  0.40406159     0.15300
C1159       C  0.39176660  0.57573016  0.39258668     0.02200
C1160       C  0.37923855  0.58913207  0.38002379    -0.15600
C1161       C  0.39299325  0.62367169  0.37814110    -0.10400
C1162       C  0.42010193  0.64503133  0.38934177     0.08900
C1163       C  0.43113235  0.58441485  0.41830059     0.10000
S1164       S  0.37322688  0.53115414  0.39323312    -0.24700
H1165       H  0.35868134  0.57232296  0.37152033     0.20200
S1166       S  0.43983790  0.68960794  0.38858896    -0.30400
H1167       H  0.45179907  0.64805954  0.41119267     0.10500
C1168       C  0.46417616  0.59080370  0.41790013     0.03700
C1169       C  0.47524668  0.57761390  0.43140138    -0.12700
C1170       C  0.45405167  0.55813166  0.44534273    -0.08400
C1171       C  0.42141992  0.55306565  0.44616884     0.07200
C1172       C  0.41025386  0.56598245  0.43257160    -0.13500
S1173       S  0.49179954  0.61410600  0.39967655    -0.30400
H1174       H  0.50022371  0.58142142  0.43069869     0.11400
S1175       S  0.39333837  0.53148736  0.46446707    -0.27500
H1176       H  0.38512144  0.56184630  0.43316092     0.08700
H1177       H  0.45222291  0.69132518  0.37108950     0.27100
H1178       H  0.52084845  0.61669542  0.40717410     0.21900
H1179       H  0.41822508  0.54255941  0.47777094     0.27200
H1180       H  0.40225213  0.53093652  0.39842834     0.16000
C1181       C  0.09286922  0.62872054  0.91556862    -0.11200
C1182       C  0.08302134  0.65271563  0.91602332     0.15300
C1183       C  0.05915119  0.64974142  0.92875890     0.02200
C1184       C  0.04554704  0.62284187  0.94063913    -0.15600
C1185       C  0.05545696  0.59879366  0.94033816    -0.10400
C1186       C  0.07917118  0.60168232  0.92738348     0.08900
C1187       C  0.09637814  0.67927663  0.90227891     0.10000
S1188       S  0.04516062  0.67951768  0.93061730    -0.24700
H1189       H  0.02741262  0.62102542  0.95042716     0.20200
S1190       S  0.09148985  0.57085009  0.92432408    -0.30400
H1191       H  0.11063654  0.63055332  0.90552419     0.10500
C1192       C  0.12995710  0.70461143  0.90233375     0.03700
C1193       C  0.14123631  0.72960608  0.88921048    -0.12700
C1194       C  0.11961757  0.72982749  0.87599725    -0.08400
C1195       C  0.08622157  0.70356933  0.87565553     0.07200
C1196       C  0.07495656  0.67888815  0.88886358    -0.13500
S1197       S  0.15803753  0.70603634  0.91962747    -0.30400
H1198       H  0.16676248  0.74967058  0.88960424     0.11400
S1199       S  0.05705367  0.69925412  0.85839817    -0.27500
H1200       H  0.04930739  0.65897028  0.88860592     0.08700
H1201       H  0.05909118  0.54363253  0.92614329     0.27100
H1202       H  0.18671875  0.73412816  0.91309183     0.21900
H1203       H  0.08069323  0.71028774  0.84446007     0.27200
H1204       H  0.07512586  0.70717993  0.92501737     0.16000
C1205       C  0.31810000  0.93691736  0.88937272    -0.11200
C1206       C  0.31976044  0.91647406  0.90273049     0.15300
C1207       C  0.29517450  0.88258780  0.90332437     0.02200
C1208       C  0.27034550  0.86959114  0.89018319    -0.15600
C1209       C  0.26857151  0.88985929  0.87672224    -0.10400
C1210       C  0.29291360  0.92399245  0.87631936     0.08900
C1211       C  0.34788828  0.93065334  0.91555905     0.10000
S1212       S  0.29379061  0.85474225  0.92067407    -0.25700
H1213       H  0.25153805  0.84355041  0.89085589     0.20200
S1214       S  0.29414392  0.95199695  0.85914329    -0.30400
H1215       H  0.33701377  0.96293359  0.88887143     0.10500
C1216       C  0.37290705  0.92195600  0.91479867     0.03700
C1217       C  0.39735474  0.93333767  0.92823980    -0.12700
C1218       C  0.39767966  0.95373071  0.94229615    -0.08400
C1219       C  0.37282522  0.96285744  0.94280802     0.07200
C1220       C  0.34845071  0.95150851  0.92934479    -0.13500
S1221       S  0.37411802  0.89700905  0.89646720    -0.30400
H1222       H  0.41677216  0.92691236  0.92760074     0.11400
S1223       S  0.36974894  0.98736008  0.96071136    -0.27500
H1224       H  0.32904472  0.95798103  0.92996894     0.08700
H1225       H  0.28388617  0.92860961  0.84509320     0.27100
H1226       H  0.40214343  0.89557611  0.90243158     0.21900
H1227       H  0.38011133  0.97359085  0.97438676     0.27200
H1228       H  0.30763245  0.87871058  0.93438938     0.16000
C1229       C  0.03561915  0.90540288  0.91781918    -0.11200
C1230       C  0.06765110  0.91017894  0.92021067     0.15300
C1231       C  0.08710314  0.92922310  0.93492280     0.02200
C1232       C  0.07448850  0.94387200  0.94658902    -0.15600
C1233       C  0.04257875  0.93950921  0.94407256    -0.10400
C1234       C  0.02300538  0.92008756  0.92942515     0.08900
C1235       C  0.08134157  0.89817889  0.90601715     0.10000
S1236       S  0.12823086  0.93598411  0.93939879    -0.24700
H1237       H  0.08963936  0.95865757  0.95779056     0.20200
S1238       S  0.98294717  0.91522642  0.92390374    -0.30400
H1239       H  0.02093333  0.89136381  0.90631374     0.10500
C1240       C  0.06998202  0.86416480  0.90351895     0.03700
C1241       C  0.08362807  0.85418979  0.88966975    -0.12700
C1242       C  0.10823333  0.87755837  0.87811028    -0.08400
C1243       C  0.11838180  0.91160032  0.88029615     0.07200
C1244       C  0.10527399  0.92148358  0.89435060    -0.13500
S1245       S  0.03906317  0.83363515  0.91839124    -0.30400
H1246       H  0.07571067  0.82812784  0.88816672     0.11400
S1247       S  0.14663023  0.94359894  0.86521210    -0.27500
H1248       H  0.11326730  0.94757584  0.89600061     0.08700
H1249       H  0.99184913  0.94821958  0.92795328     0.27100
H1250       H  0.03685108  0.80549601  0.90997094     0.21900
H1251       H  0.13306572  0.92414096  0.84965296     0.27200
H1252       H  0.12317721  0.90628041  0.93156654     0.16000
C1253       C  0.00539796  0.72904089  0.78951270    -0.11200
C1254       C  0.49661433  0.74802987  0.77863702     0.15300
C1255       C  0.02033591  0.78174290  0.77532115     0.02200
C1256       C  0.05141074  0.79606217  0.78391519    -0.15600
C1257       C  0.05972493  0.77718367  0.79528526    -0.10400
C1258       C  0.03663028  0.74308878  0.79771965     0.08900
C1259       C  0.46309407  0.73136230  0.77029525     0.10000
S1260       S  0.01206531  0.80785627  0.76076458    -0.24700
H1261       H  0.06892619  0.82224558  0.78202435     0.20200
S1262       S  0.04571078  0.71596945  0.81085694    -0.30400
H1263       H  0.48773279  0.70310834  0.79187132     0.10500
C1264       C  0.45481679  0.70722576  0.75680244     0.03700
C1265       C  0.42313222  0.69216877  0.74908358    -0.12700
C1266       C  0.39958331  0.70133400  0.75403183    -0.08400
C1267       C  0.40748598  0.72479051  0.76795469     0.07200
C1268       C  0.43920149  0.73954087  0.77597228    -0.13500
S1269       S  0.48512588  0.69672068  0.74869891    -0.30400
H1270       H  0.41690436  0.67366696  0.73871902     0.11400
S1271       S  0.37828409  0.73759401  0.77479679    -0.27500
H1272       H  0.44574677  0.75794139  0.78646649     0.08700
H1273       H  0.08014572  0.73312322  0.80757973     0.27100
H1274       H  0.46553522  0.67517691  0.73483330     0.21900
H1275       H  0.39832280  0.76019954  0.78816565     0.27200
H1276       H  0.49037557  0.78279752  0.74917384     0.16000
C1277       C  0.29675639  0.56151743  0.77563458    -0.11200
C1278       C  0.26528079  0.53745534  0.76936192     0.15300
C1279       C  0.25038747  0.54575875  0.75527019     0.02200
C1280       C  0.26735300  0.57749656  0.74766271    -0.15600
C1281       C  0.29979888  0.60110029  0.75307950    -0.10400
C1282       C  0.31423119  0.59301634  0.76760283     0.08900
C1283       C  0.24802881  0.50446024  0.77827390     0.10000
S1284       S  0.20980207  0.51709013  0.74636969    -0.24700
H1285       H  0.25525874  0.58353849  0.73706737     0.20200
S1286       S  0.35508993  0.62108266  0.77618251    -0.30400
H1287       H  0.30807023  0.55544840  0.78667024     0.10500
C1288       C  0.25438117  0.97868790  0.77326626     0.03700
C1289       C  0.23735393  0.94790885  0.78221368    -0.12700
C1290       C  0.21561265  0.94299107  0.79656765    -0.08400
C1291       C  0.21018912  0.96935913  0.80153496     0.07200
C1292       C  0.22724360  0.99994021  0.79264916    -0.13500
S1293       S  0.28115782  0.48425379  0.75453809    -0.30400
H1294       H  0.24169291  0.92792980  0.77837176     0.11400
S1295       S  0.18103245  0.96542005  0.81869648    -0.27500
H1296       H  0.22144015  0.51915886  0.79625579     0.08700
H1297       H  0.36919611  0.63127186  0.75908457     0.27100
H1298       H  0.27795303  0.95226410  0.75532200     0.21900
H1299       H  0.15782177  0.93202859  0.81489781     0.27200
H1300       H  0.21283667  0.98820533  0.74948700     0.16000
C1301       C  0.25813476  0.70123516  0.77329918    -0.11200
C1302       C  0.26762210  0.73390434  0.76821928     0.15300
C1303       C  0.29357092  0.75039559  0.75567085     0.02200
C1304       C  0.30923527  0.73399125  0.74847113    -0.15600
C1305       C  0.29900969  0.70085568  0.75290950    -0.10400
C1306       C  0.27349874  0.68448811  0.76574010     0.08900
C1307       C  0.25202249  0.75114840  0.77729545     0.10000
S1308       S  0.30812879  0.79244511  0.74834305    -0.24700
H1309       H  0.32911048  0.74703078  0.73885816     0.20200
S1310       S  0.25939991  0.64195798  0.77193673    -0.30400
H1311       H  0.23857814  0.68890513  0.78317465     0.10500
C1312       C  0.22313280  0.75015498  0.77053259     0.03700
C1313       C  0.20957356  0.76720158  0.77970287    -0.12700
C1314       C  0.22443489  0.78529986  0.79551131    -0.08400
C1315       C  0.25423777  0.78717145  0.80172875     0.07200
C1316       C  0.26727234  0.76976164  0.79275099    -0.13500
S1317       S  0.20384696  0.72738170  0.75016913    -0.30400
H1318       H  0.18685538  0.76567762  0.77483248     0.11400
S1319       S  0.27774380  0.81235131  0.82063427    -0.27500
H1320       H  0.28992733  0.77117128  0.79769647     0.08700
H1321       H  0.23379035  0.63804430  0.78355742     0.27100
H1322       H  0.17985299  0.73731264  0.74870725     0.21900
H1323       H  0.27135390  0.83834673  0.81696647     0.27200
H1324       H  0.27763532  0.79168725  0.74994133     0.16000
C1325       C  0.45246569  0.75568969  0.70704453    -0.11200
C1326       C  0.46137324  0.73697649  0.69596610     0.15300
C1327       C  0.43853588  0.70285618  0.69334876     0.02200
C1328       C  0.40781939  0.68818282  0.70218058    -0.15600
C1329       C  0.39933763  0.70671543  0.71368410    -0.10400
C1330       C  0.42159455  0.74118753  0.71562586     0.08900
C1331       C  0.49494902  0.75368346  0.68776633     0.10000
S1332       S  0.44726440  0.67656166  0.67923486    -0.24700
H1333       H  0.39076214  0.66186093  0.70043649     0.20200
S1334       S  0.41232931  0.76831882  0.72863457    -0.30400
H1335       H  0.46980730  0.78190800  0.70902718     0.10500
C1336       C  0.50441073  0.77943527  0.67509222     0.03700
C1337       C  0.03664315  0.79463648  0.66754230    -0.12700
C1338       C  0.05938712  0.78439568  0.67248199    -0.08400
C1339       C  0.04982325  0.75903050  0.68551366     0.07200
C1340       C  0.01768231  0.74385798  0.69274475    -0.13500
S1341       S  0.47513633  0.79174332  0.66748814    -0.30400
H1342       H  0.04370549  0.81380109  0.65745489     0.11400
S1343       S  0.07764263  0.74563812  0.69393923    -0.27500
H1344       H  0.01050042  0.72449500  0.70274434     0.08700
H1345       H  0.37768660  0.74830431  0.72792576     0.27100
H1346       H  0.49740459  0.81843811  0.65663688     0.21900
H1347       H  0.10620895  0.77732315  0.69330347     0.27200
H1348       H  0.46779853  0.70145692  0.66698490     0.16000
C1349       C  0.22462297  0.98572421  0.69140048    -0.11200
C1350       C  0.25753048  0.50921050  0.68589733     0.15300
C1351       C  0.27290543  0.99984791  0.67279817     0.02200
C1352       C  0.25648901  0.96769694  0.66571240    -0.15600
C1353       C  0.22385844  0.94454829  0.67088217    -0.10400
C1354       C  0.20790428  0.95371155  0.68404098     0.08900
C1355       C  0.27453462  0.54230451  0.69457596     0.10000
S1356       S  0.31397032  0.52868066  0.66382312    -0.24700
H1357       H  0.26886293  0.96114853  0.65548973     0.20200
S1358       S  0.16685730  0.92552854  0.69248699    -0.30400
H1359       H  0.21252719  0.99242714  0.70171254     0.10500
C1360       C  0.26293598  0.56497590  0.69257662     0.03700
C1361       C  0.27949025  0.59567621  0.70146724    -0.12700
C1362       C  0.30685425  0.60376779  0.71265569    -0.08400
C1363       C  0.31931259  0.58161385  0.71395255     0.07200
C1364       C  0.30277380  0.55103375  0.70511820    -0.13500
S1365       S  0.22713287  0.55490342  0.67871283    -0.30400
H1366       H  0.27037253  0.61293624  0.70026530     0.11400
S1367       S  0.35620919  0.59072533  0.72645094    -0.27500
H1368       H  0.31194243  0.53379268  0.70648939     0.08700
H1369       H  0.17032051  0.89716901  0.69167778     0.27100
H1370       H  0.22513020  0.58340758  0.68278920     0.21900
H1371       H  0.37074132  0.62531975  0.72577185     0.27200
H1372       H  0.31109276  0.55726186  0.66557567     0.16000
C1373       C  0.24858728  0.70089214  0.70478674    -0.11200
C1374       C  0.26839404  0.72924797  0.69445450     0.15300
C1375       C  0.30269614  0.74055408  0.69265494     0.02200
C1376       C  0.31656579  0.72399652  0.70177737    -0.15600
C1377       C  0.29688783  0.69627409  0.71261207    -0.10400
C1378       C  0.26223375  0.68390491  0.71355949     0.08900
C1379       C  0.25237620  0.74658320  0.68607227     0.10000
S1380       S  0.33007438  0.77610816  0.67918966    -0.24700
H1381       H  0.34305879  0.73335226  0.70080798     0.20200
S1382       S  0.23377195  0.64659786  0.72551069    -0.30400
H1383       H  0.22217975  0.69191943  0.70601338     0.10500
C1384       C  0.22848164  0.73139240  0.67234415     0.03700
C1385       C  0.21262726  0.74785544  0.66535375    -0.12700
C1386       C  0.22046562  0.77946395  0.67159189    -0.08400
C1387       C  0.24430248  0.79456813  0.68545249     0.07200
C1388       C  0.26004662  0.77800828  0.69249776    -0.13500
S1389       S  0.21919492  0.69165571  0.66316370    -0.30400
H1390       H  0.19475233  0.73650642  0.65454730     0.11400
S1391       S  0.25480828  0.83418188  0.69515076    -0.27500
H1392       H  0.27802648  0.78942304  0.70327100     0.08700
H1393       H  0.25439275  0.63264858  0.72634401     0.27100
H1394       H  0.19569876  0.68906585  0.65033564     0.21900
H1395       H  0.22282739  0.83013349  0.69329968     0.27200
H1396       H  0.30602586  0.77248264  0.66647775     0.16000
C1397       C  0.04789903  0.62535180  0.55729271    -0.11200
C1398       C  0.07901118  0.65344917  0.55447775     0.15300
C1399       C  0.09691995  0.65624907  0.53857536     0.02200
C1400       C  0.08315718  0.63076631  0.52579549    -0.15600
C1401       C  0.05218791  0.60231944  0.52875423    -0.10400
C1402       C  0.03405480  0.60003774  0.54452606     0.08900
C1403       C  0.09110189  0.68013140  0.56796942     0.10000
S1404       S  0.13738002  0.69143007  0.53387176    -0.24700
H1405       H  0.09717581  0.63266462  0.51375678     0.20200
S1406       S  0.49114949  0.56653843  0.54844631    -0.30400
H1407       H  0.03390008  0.62359828  0.56931898     0.10500
C1408       C  0.09064382  0.70961594  0.56450034     0.03700
C1409       C  0.10357178  0.73490930  0.57735307    -0.12700
C1410       C  0.11647258  0.73115758  0.59375282    -0.08400
C1411       C  0.11580558  0.70100260  0.59744475     0.07200
C1412       C  0.10282358  0.67568781  0.58454660    -0.13500
S1413       S  0.07301761  0.71476605  0.54387086    -0.30400
H1414       H  0.10352488  0.75778156  0.57465260     0.11400
S1415       S  0.13254497  0.69386382  0.61777726    -0.27500
H1416       H  0.10272472  0.65270610  0.58720630     0.08700
H1417       H  0.48101447  0.56235328  0.53031372     0.27100
H1418       H  0.07766879  0.74642181  0.54777947     0.21900
H1419       H  0.16053443  0.72593416  0.61848143     0.27200
H1420       H  0.14730205  0.70003094  0.55187117     0.16000
C1421       C  0.34344178  0.91514196  0.53719144    -0.11200
C1422       C  0.34955604  0.93023581  0.55418603     0.15300
C1423       C  0.38148920  0.95666356  0.55833542     0.02200
C1424       C  0.40662453  0.96732975  0.54545621    -0.15600
C1425       C  0.40069446  0.95242277  0.52833373    -0.10400
C1426       C  0.36867990  0.92561485  0.52431722     0.08900
C1427       C  0.32251806  0.91675229  0.56756714     0.10000
S1428       S  0.39171211  0.97783702  0.57975308    -0.24700
H1429       H  0.43099732  0.98789957  0.54879931     0.20200
S1430       S  0.35887211  0.90235711  0.50362159    -0.30400
H1431       H  0.31900688  0.89438811  0.53414449     0.10500
C1432       C  0.29507996  0.92162209  0.56579489     0.03700
C1433       C  0.26923228  0.90715433  0.57835259    -0.12700
C1434       C  0.27036541  0.88804231  0.59269836    -0.08400
C1435       C  0.29803292  0.88332531  0.59445400     0.07200
C1436       C  0.32395546  0.89801486  0.58197118    -0.13500
S1437       S  0.29340481  0.94688708  0.54778815    -0.30400
H1438       H  0.24807034  0.91085992  0.57707663     0.11400
S1439       S  0.30085322  0.85734282  0.61157237    -0.27500
H1440       H  0.34500485  0.89408496  0.58318076     0.08700
H1441       H  0.38875450  0.90151942  0.50316048     0.27100
H1442       H  0.26202404  0.94268224  0.55207908     0.21900
H1443       H  0.26696540  0.83298817  0.61103498     0.27200
H1444       H  0.36000987  0.97350154  0.58318097     0.16000
C1445       C  0.04430646  0.91733442  0.55515834    -0.11200
C1446       C  0.07427720  0.91820198  0.55163841     0.15300
C1447       C  0.08999640  0.92961052  0.53480036     0.02200
C1448       C  0.07592144  0.94116038  0.52204902    -0.15600
C1449       C  0.04662808  0.94174311  0.52590877    -0.10400
C1450       C  0.03002676  0.92839977  0.54242602     0.08900
C1451       C  0.08735917  0.90539025  0.56560025     0.10000
S1452       S  0.12820109  0.93063020  0.52895473    -0.24700
H1453       H  0.08866726  0.95107754  0.50940874     0.20200
S1454       S  0.48905198  0.92246701  0.54727469    -0.30400
H1455       H  0.03173800  0.90752849  0.56786424     0.10500
C1456       C  0.10367959  0.92434347  0.58096505     0.03700
C1457       C  0.11512760  0.91083253  0.59410781    -0.12700
C1458       C  0.11033576  0.87873218  0.59211661    -0.08400
C1459       C  0.09244855  0.85926776  0.57707879     0.07200
C1460       C  0.08159874  0.87299968  0.56387530    -0.13500
S1461       S  0.11102209  0.96612770  0.58344130    -0.30400
H1462       H  0.12891587  0.92569202  0.60559082     0.11400
S1463       S  0.08177671  0.81650575  0.57418848    -0.27500
H1464       H  0.06810992  0.85819676  0.55229294     0.08700
H1465       H  0.47737549  0.91591331  0.52941253     0.27100
H1466       H  0.12566608  0.97207598  0.60062879     0.21900
H1467       H  0.07822735  0.80886451  0.59267140     0.27200
H1468       H  0.14107025  0.93538355  0.54652082     0.16000
Zn1469     Zn  0.64356766  0.28911276  0.64315497     1.49700
Zn1470     Zn  0.66740819  0.33459754  0.60856365     1.49400
Zn1471     Zn  0.64541772  0.35926941  0.64291657     1.49100
Zn1472     Zn  0.71377997  0.35775725  0.64281151     1.49500
O1473       O  0.66752583  0.33516369  0.63461751    -1.84000
O1474       O  0.62645638  0.25606272  0.62250878    -0.74600
O1475       O  0.64163057  0.35391730  0.59859245    -0.74400
O1476       O  0.60570072  0.32948183  0.65808871    -0.73900
O1477       O  0.64636676  0.28910744  0.59876908    -0.74600
O1478       O  0.60389357  0.28075846  0.65826225    -0.74200
O1479       O  0.62745853  0.37370711  0.62204093    -0.74800
O1480       O  0.72403919  0.39827805  0.65750520    -0.74200
O1481       O  0.71257760  0.35940269  0.59812225    -0.75000
O1482       O  0.67693882  0.39989058  0.65730050    -0.74300
O1483       O  0.74593330  0.37367149  0.62187640    -0.74800
O1484       O  0.72296076  0.32664766  0.65737391    -0.74700
O1485       O  0.67448854  0.27934857  0.65745956    -0.74500
C1486       C  0.63046197  0.26029578  0.60556848     0.77300
C1487       C  0.62716755  0.36847640  0.60519811     0.77800
C1488       C  0.59189169  0.29910284  0.66277629     0.76700
C1489       C  0.70728220  0.41209717  0.66191514     0.77100
C1490       C  0.74148232  0.37283555  0.60493039     0.78200
C1491       C  0.70510276  0.29624378  0.66178905     0.77300
C1492       C  0.83458104  0.16884499  0.71583241     0.45600
H1493       H  0.83520227  0.16910978  0.70087188    -0.03400
C1494       C  0.83303217  0.16821506  0.75099461     0.45700
H1495       H  0.83228378  0.16788417  0.76592199    -0.03400
C1496       C  0.81969448  0.13400776  0.72394194    -0.17100
C1497       C  0.86891471  0.18890825  0.72453216    -0.16900
C1498       C  0.81408924  0.18326403  0.72377168    -0.17200
C1499       C  0.81795453  0.13325776  0.74245969    -0.17200
C1500       C  0.86853010  0.18800589  0.74306671    -0.16800
C1501       C  0.81378078  0.18387556  0.74228312    -0.17100
Zn1502     Zn  0.69158496  0.31308853  0.84336487     1.49700
Zn1503     Zn  0.62075541  0.30727934  0.84374339     1.49400
Zn1504     Zn  0.68584218  0.37846602  0.84459400     1.49100
Zn1505     Zn  0.66701966  0.33578273  0.80798768     1.49500
O1506       O  0.66628183  0.33363109  0.83466957    -1.84000
O1507       O  0.66387776  0.27257374  0.85861292    -0.74600
O1508       O  0.60807506  0.33418717  0.85969341    -0.74400
O1509       O  0.72485134  0.38930524  0.86054421    -0.73900
O1510       O  0.61423305  0.26839406  0.85871125    -0.74600
O1511       O  0.73004642  0.34447035  0.85893072    -0.74200
O1512       O  0.65308553  0.38422197  0.85969570    -0.74800
O1513       O  0.68969536  0.38455929  0.79926971    -0.74200
O1514       O  0.58863899  0.28991506  0.82321891    -0.75000
O1515       O  0.70216887  0.41248920  0.82498487    -0.74300
O1516       O  0.61906522  0.31108545  0.79842175    -0.74800
O1517       O  0.69249767  0.31342370  0.79782248    -0.74700
O1518       O  0.70932145  0.29921511  0.82262117    -0.74500
C1519       C  0.63360970  0.25788064  0.86356767     0.77300
C1520       C  0.62342580  0.36437847  0.86472686     0.77800
C1521       C  0.73978764  0.37363574  0.86480038     0.76700
C1522       C  0.70200908  0.41205658  0.80786934     0.77100
C1523       C  0.59102315  0.29359220  0.80620873     0.78200
C1524       C  0.70815934  0.30067205  0.80554568     0.77300
Zn1525     Zn  0.83381359  0.16610548  0.30874477     1.49700
Zn1526     Zn  0.81586690  0.12399946  0.34583648     1.49400
Zn1527     Zn  0.88205792  0.19442704  0.34365385     1.49100
Zn1528     Zn  0.81206596  0.19036556  0.34432135     1.49500
O1529       O  0.83596886  0.16864004  0.33536985    -1.84000
O1530       O  0.81310754  0.11729091  0.30070503    -0.74600
O1531       O  0.84826526  0.11874020  0.36144572    -0.74400
O1532       O  0.91302961  0.21272810  0.32260574    -0.73900
O1533       O  0.80094007  0.08929121  0.32651887    -0.74600
O1534       O  0.88114885  0.19296889  0.29817484    -0.74200
O1535       O  0.89497451  0.16676406  0.35885167    -0.74800
O1536       O  0.84074151  0.23055570  0.35946556    -0.74200
O1537       O  0.77718299  0.11425433  0.36201847    -0.75000
O1538       O  0.88953358  0.23272018  0.35960014    -0.74300
O1539       O  0.77505852  0.16077289  0.36073835    -0.74800
O1540       O  0.79198827  0.20262533  0.32409400    -0.74700
O1541       O  0.80492819  0.18518328  0.29911113    -0.74500
C1542       C  0.80169332  0.08997682  0.30938941     0.77300
C1543       C  0.87873500  0.13768547  0.36540719     0.77800
C1544       C  0.90968403  0.21034500  0.30556120     0.76700
C1545       C  0.87076465  0.24379867  0.36473115     0.77100
C1546       C  0.76461010  0.13181919  0.36698704     0.78200
C1547       C  0.79012963  0.19855328  0.30711111     0.77300
C1548       C  0.66917652  0.33484687  0.21747327     0.45600
H1549       H  0.66994551  0.33522245  0.20252853    -0.03400
C1550       C  0.66651586  0.33334545  0.25261818     0.45700
H1551       H  0.66495803  0.33260154  0.26752869    -0.03400
C1552       C  0.63356948  0.31713561  0.22499412    -0.17100
C1553       C  0.68620246  0.31705215  0.22612615    -0.16900
C1554       C  0.68634115  0.36955985  0.22612138    -0.17200
C1555       C  0.63203556  0.31658179  0.24344382    -0.17200
C1556       C  0.68418267  0.31540090  0.24467651    -0.16800
C1557       C  0.68538610  0.36892349  0.24465658    -0.17100
Zn1558     Zn  0.78817506  0.14391431  0.14130184     1.49700
Zn1559     Zn  0.85688902  0.14265062  0.14226901     1.49400
Zn1560     Zn  0.83675791  0.16819447  0.10783192     1.49100
Zn1561     Zn  0.85769996  0.21269432  0.14322577     1.49500
O1562       O  0.83492704  0.16698156  0.13392827    -1.84000
O1563       O  0.77783674  0.10355371  0.15605760    -0.74600
O1564       O  0.87527381  0.12812249  0.12163608    -0.74400
O1565       O  0.79212989  0.14271710  0.09665446    -0.73900
O1566       O  0.82477778  0.10163877  0.15626573    -0.74600
O1567       O  0.75731864  0.12632758  0.11972674    -0.74200
O1568       O  0.86362967  0.14963776  0.09806103    -0.74800
O1569       O  0.87392489  0.24624321  0.12275388    -0.74200
O1570       O  0.89726124  0.17268878  0.15699725    -0.75000
O1571       O  0.85784638  0.21389080  0.09854505    -0.74300
O1572       O  0.89894672  0.22140897  0.15739643    -0.74800
O1573       O  0.82584113  0.22130841  0.15802719    -0.74700
O1574       O  0.77726030  0.17451326  0.15556140    -0.74500
C1575       C  0.79412757  0.08918001  0.16031153     0.77300
C1576       C  0.87679947  0.13390640  0.10482000     0.77800
C1577       C  0.76279278  0.12722141  0.10287316     0.76700
C1578       C  0.87216069  0.24242938  0.10572926     0.77100
C1579       C  0.91174634  0.20336116  0.16114513     0.78200
C1580       C  0.79467012  0.20429554  0.16120053     0.77300
Zn1581     Zn  0.50090121  0.00053654  0.01035994     1.49700
Zn1582     Zn  0.97892723  0.02518764  0.97579155     1.49400
Zn1583     Zn  0.54601031  0.01887629  0.97602631     1.49100
Zn1584     Zn  0.97406405  0.45325661  0.97669325     1.49500
O1585       O  0.49996314  0.99936388  0.98443421    -1.84000
O1586       O  0.98206856  0.02805080  0.01999811    -0.74600
O1587       O  0.51202503  0.06186268  0.95927825    -0.74400
O1588       O  0.57955710  0.03473461  0.99653671    -0.73900
O1589       O  0.96553656  0.04510707  0.99629316    -0.74600
O1590       O  0.54635567  0.01919689  0.02034877    -0.74200
O1591       O  0.55756645  0.05757927  0.95965991    -0.74800
O1592       O  0.50202249  0.44234211  0.96086456    -0.74200
O1593       O  0.93901419  0.49617005  0.96083922    -0.75000
O1594       O  0.55170669  0.48798611  0.95991928    -0.74300
O1595       O  0.93623741  0.44700820  0.96073871    -0.74800
O1596       O  0.95595020  0.42115889  0.99783669    -0.74700
O1597       O  0.97537563  0.45594408  0.02086728    -0.74500
C1598       C  0.96893494  0.04384811  0.01325600     0.77300
C1599       C  0.54154493  0.07138422  0.95397770     0.77800
C1600       C  0.57518109  0.03212329  0.01351473     0.76700
C1601       C  0.53178721  0.45815607  0.95513466     0.77100
C1602       C  0.92543832  0.46608062  0.95567711     0.78200
C1603       C  0.95881486  0.42660712  0.01473656     0.77300
Zn1604     Zn  0.52287329  0.47676629  0.47658683     1.49700
Zn1605     Zn  0.50297235  0.00062661  0.51128752     1.49400
Zn1606     Zn  0.52666471  0.04769504  0.47763411     1.49100
Zn1607     Zn  0.95586713  0.48058395  0.47785349     1.49500
O1608       O  0.50219507  0.00133234  0.48536257    -1.84000
O1609       O  0.53795357  0.45767994  0.49682794    -0.74600
O1610       O  0.52616167  0.04552422  0.52184866    -0.74400
O1611       O  0.56532262  0.05585551  0.46218471    -0.73900
O1612       O  0.52286415  0.47542870  0.52080115    -0.74600
O1613       O  0.56358218  0.00719814  0.46087358    -0.74200
O1614       O  0.54268775  0.07992509  0.49855860    -0.74800
O1615       O  0.94817222  0.01364178  0.46305283    -0.74200
O1616       O  0.95811564  0.47836800  0.52213467    -0.75000
O1617       O  0.99796563  0.05918550  0.46294094    -0.74300
O1618       O  0.92376807  0.46418416  0.49889929    -0.74800
O1619       O  0.94513092  0.44185700  0.46151629    -0.74700
O1620       O  0.99183606  0.43953561  0.46079590    -0.74500
C1621       C  0.53530069  0.45921045  0.51383249     0.77300
C1622       C  0.53976301  0.07466651  0.51545436     0.77800
C1623       C  0.57643644  0.03758046  0.45627763     0.76700
C1624       C  0.96760340  0.04349496  0.45814318     0.77100
C1625       C  0.92889231  0.46515026  0.51579356     0.78200
C1626       C  0.96190503  0.42884060  0.45581311     0.77300
C1627       C  0.62900536  0.04013395  0.05360484    -0.11200
C1628       C  0.65505255  0.07283020  0.05162293     0.15300
C1629       C  0.65575481  0.09153431  0.03647882     0.02200
C1630       C  0.63032990  0.07707078  0.02362780    -0.15600
C1631       C  0.60380683  0.04455982  0.02583222    -0.10400
C1632       C  0.60349991  0.02577316  0.04088281     0.08900
C1633       C  0.68199005  0.08594847  0.06510345     0.10000
S1634       S  0.68789778  0.13406036  0.03301729    -0.24700
H1635       H  0.63049664  0.09174264  0.01225585     0.20200
S1636       S  0.57195918  0.48383670  0.04363018    -0.30400
H1637       H  0.62878689  0.02559583  0.06505878     0.10500
C1638       C  0.67786399  0.09628025  0.08225303     0.03700
C1639       C  0.70428674  0.10875083  0.09457485    -0.12700
C1640       C  0.73461338  0.11064845  0.09014459    -0.08400
C1641       C  0.73780381  0.09839080  0.07321724     0.07200
C1642       C  0.71175897  0.08687210  0.06080403    -0.13500
S1643       S  0.63940315  0.09474323  0.08817135    -0.30400
H1644       H  0.70163148  0.11793706  0.10749153     0.11400
S1645       S  0.77361285  0.09521664  0.06684284    -0.27500
H1646       H  0.71441755  0.07790474  0.04779472     0.08700
H1647       H  0.56624345  0.47543596  0.02526578     0.27100
H1648       H  0.64751072  0.10419652  0.10628663     0.21900
H1649       H  0.77848156  0.08575287  0.08407321     0.27200
H1650       H  0.69509594  0.14237245  0.05129958     0.16000
C1651       C  0.91578930  0.29757181  0.06596421    -0.11200
C1652       C  0.90695275  0.32209282  0.06794888     0.15300
C1653       C  0.88825910  0.32151214  0.08309691     0.02200
C1654       C  0.87883251  0.29632819  0.09592911    -0.15600
C1655       C  0.88703138  0.27133065  0.09368797    -0.10400
C1656       C  0.90635404  0.27243901  0.07871720     0.08900
C1657       C  0.91953666  0.34896237  0.05450533     0.10000
S1658       S  0.87523334  0.35171971  0.08666187    -0.24700
H1659       H  0.86377013  0.29539874  0.10730057     0.20200
S1660       S  0.92048417  0.24301061  0.07534482    -0.30400
H1661       H  0.93071793  0.29841726  0.05453976     0.10500
C1662       C  0.94684077  0.38035206  0.05840146     0.03700
C1663       C  0.95875608  0.40493951  0.04514366    -0.12700
C1664       C  0.94399754  0.39899043  0.02794696    -0.08400
C1665       C  0.91633703  0.36730856  0.02417566     0.07200
C1666       C  0.90481341  0.34255517  0.03740108    -0.13500
S1667       S  0.96720419  0.38877622  0.08008837    -0.30400
H1668       H  0.98015548  0.42889510  0.04816892     0.11400
S1669       S  0.89379661  0.35712351  0.00321788    -0.27500
H1670       H  0.88376851  0.31823856  0.03447746     0.08700
H1671       H  0.92334122  0.23766270  0.09374385     0.27100
H1672       H  0.99153942  0.42193320  0.07666152     0.21900
H1673       H  0.89327081  0.38709516  0.00229700     0.27200
H1674       H  0.87465958  0.35957528  0.06844719     0.16000
C1675       C  0.90999538  0.08327709  0.08176254    -0.11200
C1676       C  0.92579654  0.10343062  0.06680020     0.15300
C1677       C  0.92728496  0.13428186  0.06507805     0.02200
C1678       C  0.91146717  0.14359708  0.07785338    -0.15600
C1679       C  0.89452312  0.12300730  0.09256848    -0.10400
C1680       C  0.89417881  0.09259694  0.09461318     0.08900
C1681       C  0.93817249  0.09040407  0.05254482     0.10000
S1682       S  0.94846571  0.16251532  0.04675715    -0.24700
H1683       H  0.91239313  0.16722676  0.07626252     0.20200
S1684       S  0.87212827  0.06355375  0.11244025    -0.30400
H1685       H  0.90882230  0.05947900  0.08301966     0.10500
C1686       C  0.96811032  0.09014901  0.05461768     0.03700
C1687       C  0.97788536  0.07567236  0.04122998    -0.12700
C1688       C  0.95815659  0.06113000  0.02585447    -0.08400
C1689       C  0.92825329  0.06182657  0.02374335     0.07200
C1690       C  0.91884085  0.07687377  0.03701005    -0.13500
S1691       S  0.99386129  0.10839054  0.07427257    -0.30400
H1692       H  0.00090204  0.07533933  0.04282898     0.11400
S1693       S  0.89995137  0.04204666  0.00525308    -0.27500
H1694       H  0.89564739  0.07695227  0.03556850     0.08700
H1695       H  0.84376798  0.06704092  0.11128051     0.27100
H1696       H  0.52233418  0.10387006  0.06842904     0.21900
H1697       H  0.90323866  0.01355497  0.00520293     0.27200
H1698       H  0.97251856  0.15301890  0.04401768     0.16000
C1699       C  0.00032495  0.22566583  0.17327199    -0.11200
C1700       C  0.50772233  0.24950320  0.18732839     0.15300
C1701       C  0.98347020  0.25718376  0.19222580     0.02200
C1702       C  0.95258013  0.24230018  0.18349463    -0.15600
C1703       C  0.94489890  0.21864656  0.16986573    -0.10400
C1704       C  0.96940091  0.21059365  0.16459729     0.08900
C1705       C  0.54124844  0.26592887  0.19572762     0.10000
S1706       S  0.99013529  0.28598344  0.21013753    -0.24700
H1707       H  0.93414251  0.24874048  0.18763506     0.20200
S1708       S  0.96370979  0.18285693  0.14621631    -0.30400
H1709       H  0.51950557  0.22024918  0.16958672     0.10500
C1710       C  0.55149322  0.24843155  0.20710756     0.03700
C1711       C  0.58247908  0.26551841  0.21573394    -0.12700
C1712       C  0.60328832  0.29989481  0.21350183    -0.08400
C1713       C  0.59340749  0.31709233  0.20163097     0.07200
C1714       C  0.56276544  0.29992750  0.19273637    -0.13500
S1715       S  0.52463730  0.20464212  0.21125058    -0.30400
H1716       H  0.59025443  0.25227712  0.22467719     0.11400
S1717       S  0.61767717  0.36115759  0.19819990    -0.27500
H1718       H  0.55503483  0.31340853  0.18392237     0.08700
H1719       H  0.94714803  0.19435016  0.13499469     0.27100
H1720       H  0.54349448  0.20198332  0.22531740     0.21900
H1721       H  0.62392695  0.36810064  0.21663632     0.27200
H1722       H  0.51016041  0.27914014  0.22058288     0.16000
C1723       C  0.74024528  0.44059040  0.19396992    -0.11200
C1724       C  0.72985467  0.46344882  0.19803860     0.15300
C1725       C  0.70366710  0.45444635  0.21039664     0.02200
C1726       C  0.68978662  0.42367393  0.21904790    -0.15600
C1727       C  0.70078295  0.40101495  0.21543136    -0.10400
C1728       C  0.72589726  0.40944209  0.20238845     0.08900
C1729       C  0.74631647  0.49600716  0.18873843     0.10000
S1730       S  0.68647524  0.48074706  0.21554153    -0.24700
H1731       H  0.67026024  0.41743128  0.22882296     0.20200
S1732       S  0.74066741  0.38143636  0.19653599    -0.30400
H1733       H  0.75969822  0.44730909  0.18407786     0.10500
C1734       C  0.77944720  0.02003806  0.19252184     0.03700
C1735       C  0.79452116  0.05015853  0.18303345    -0.12700
C1736       C  0.77694967  0.05694088  0.16989119    -0.08400
C1737       C  0.74357622  0.03257320  0.16606752     0.07200
C1738       C  0.72854664  0.00267164  0.17564870    -0.13500
S1739       S  0.80249927  0.01256633  0.20970451    -0.30400
H1740       H  0.82002781  0.06867318  0.18597604     0.11400
S1741       S  0.71935526  0.03705127  0.14843725    -0.27500
H1742       H  0.70246906  0.48475484  0.17349711     0.08700
H1743       H  0.76817815  0.40393721  0.18623891     0.27100
H1744       H  0.83158390  0.04379180  0.20872034     0.21900
H1745       H  0.74574598  0.05154689  0.13603995     0.27200
H1746       H  0.71625218  0.01106005  0.21340243     0.16000
C1747       C  0.74991863  0.29472317  0.20856487    -0.11200
C1748       C  0.73088152  0.26973677  0.19608042     0.15300
C1749       C  0.69760659  0.26157612  0.19289424     0.02200
C1750       C  0.68411662  0.27814720  0.20244044    -0.15600
C1751       C  0.70309141  0.30291316  0.21510187    -0.10400
C1752       C  0.73676882  0.31174039  0.21782930     0.08900
C1753       C  0.74669763  0.25276504  0.18681776     0.10000
S1754       S  0.67100429  0.23014960  0.17699218    -0.24700
H1755       H  0.65833340  0.27113665  0.20027545     0.20200
S1756       S  0.76484956  0.34472366  0.23259336    -0.30400
H1757       H  0.77548916  0.30122104  0.21100951     0.10500
C1758       C  0.77324896  0.27001774  0.17469616     0.03700
C1759       C  0.78882822  0.25377233  0.16695712    -0.12700
C1760       C  0.77815686  0.22030762  0.17077092    -0.08400
C1761       C  0.75137542  0.20294588  0.18288082     0.07200
C1762       C  0.73609085  0.21943435  0.19082365    -0.13500
S1763       S  0.78661097  0.31249556  0.16858507    -0.30400
H1764       H  0.80897381  0.26700247  0.15751915     0.11400
S1765       S  0.73754495  0.16039482  0.18903526    -0.27500
H1766       H  0.71603769  0.20654514  0.20036002     0.08700
H1767       H  0.74783207  0.36250908  0.23234097     0.27100
H1768       H  0.81125934  0.31648473  0.15621300     0.21900
H1769       H  0.71157771  0.15602723  0.20051347     0.27200
H1770       H  0.69641040  0.23429973  0.16516034     0.16000
C1771       C  0.77851973  0.00141178  0.29683379    -0.11200
C1772       C  0.75771585  0.49527955  0.28182589     0.15300
C1773       C  0.75194270  0.02110059  0.27599262     0.02200
C1774       C  0.76752759  0.05200192  0.28469568    -0.15600
C1775       C  0.78850444  0.05802813  0.29954162    -0.10400
C1776       C  0.79454605  0.03246581  0.30538747     0.08900
C1777       C  0.74007761  0.46184359  0.27341676     0.10000
S1778       S  0.72531237  0.01593325  0.25718953    -0.24700
H1779       H  0.76264550  0.07127856  0.28006853     0.20200
S1780       S  0.82306775  0.03808467  0.32335711    -0.30400
H1781       H  0.77968122  0.47975791  0.30241311     0.10500
C1782       C  0.75629701  0.45136764  0.26130078     0.03700
C1783       C  0.73807156  0.42061494  0.25259752    -0.12700
C1784       C  0.70382896  0.39982194  0.25574331    -0.08400
C1785       C  0.68795653  0.41013627  0.26828424     0.07200
C1786       C  0.70619476  0.44082562  0.27703781    -0.13500
S1787       S  0.79991644  0.47778473  0.25639131    -0.30400
H1788       H  0.75040326  0.41292978  0.24298318     0.11400
S1789       S  0.64408288  0.38661824  0.27249548    -0.27500
H1790       H  0.69363196  0.44893673  0.28629220     0.08700
H1791       H  0.84562340  0.07160790  0.31946476     0.27100
H1792       H  0.80227142  0.45711827  0.24334378     0.21900
H1793       H  0.63638881  0.38198274  0.25407549     0.27200
H1794       H  0.73850533  0.49638552  0.24595014     0.16000
C1795       C  0.99626320  0.27457011  0.28993025    -0.11200
C1796       C  0.50104988  0.25730442  0.27624906     0.15300
C1797       C  0.97607099  0.22560631  0.27110948     0.02200
C1798       C  0.94558714  0.21119742  0.28032238    -0.15600
C1799       C  0.94014101  0.22809298  0.29439073    -0.10400
C1800       C  0.96553333  0.26070057  0.29869362     0.08900
C1801       C  0.53475081  0.27305768  0.26799716     0.10000
S1802       S  0.47903148  0.20315600  0.25225959    -0.24700
H1803       H  0.92629516  0.18632404  0.27676364     0.20200
S1804       S  0.96004593  0.28639589  0.31488016    -0.30400
H1805       H  0.01580564  0.29918590  0.29373006     0.10500
C1806       C  0.54764220  0.30267231  0.25790079     0.03700
C1807       C  0.57958487  0.31665219  0.25056902    -0.12700
C1808       C  0.59971990  0.30238360  0.25333395    -0.08400
C1809       C  0.58712823  0.27308466  0.26365211     0.07200
C1810       C  0.55480482  0.25871177  0.27084563    -0.13500
S1811       S  0.52455056  0.32374093  0.25369495    -0.30400
H1812       H  0.58848065  0.33850981  0.24221908     0.11400
S1813       S  0.61125280  0.25281428  0.26679042    -0.27500
H1814       H  0.54495259  0.23612754  0.27868590     0.08700
H1815       H  0.92583718  0.27307002  0.31166174     0.27100
H1816       H  0.49296732  0.29505370  0.25336696     0.21900
H1817       H  0.58772829  0.22611604  0.27719024     0.27200
H1818       H  0.50123222  0.23132013  0.24231509     0.16000
C1819       C  0.72587880  0.22351761  0.29540649    -0.11200
C1820       C  0.73899548  0.24155116  0.27951658     0.15300
C1821       C  0.76742361  0.24277322  0.27172480     0.02200
C1822       C  0.78265664  0.22694076  0.28040724    -0.15600
C1823       C  0.77034529  0.21009002  0.29678336    -0.10400
C1824       C  0.74075480  0.20736164  0.30390756     0.08900
C1825       C  0.72240345  0.25881206  0.27158181     0.10000
S1826       S  0.78591362  0.26437798  0.25095681    -0.24700
H1827       H  0.80511086  0.22902049  0.27472403     0.20200
S1828       S  0.72007785  0.18285366  0.32354178    -0.30400
H1829       H  0.70362237  0.22180065  0.30117028     0.10500
C1830       C  0.70034725  0.24534533  0.25696960     0.03700
C1831       C  0.68632884  0.26326612  0.24950182    -0.12700
C1832       C  0.69531069  0.29542435  0.25556564    -0.08400
C1833       C  0.71608998  0.30794574  0.27092394     0.07200
C1834       C  0.72899338  0.28935530  0.27884679    -0.13500
S1835       S  0.69053744  0.20563432  0.24759513    -0.30400
H1836       H  0.66891444  0.25252971  0.23847794     0.11400
S1837       S  0.72892029  0.34808457  0.28047915    -0.27500
H1838       H  0.74552410  0.29944643  0.29031445     0.08700
H1839       H  0.72867905  0.15829089  0.32019705     0.27100
H1840       H  0.67221052  0.20659693  0.23273746     0.21900
H1841       H  0.73749258  0.36407213  0.26378194     0.27200
H1842       H  0.77250692  0.28555188  0.25077937     0.16000
C1843       C  0.70798073  0.12507493  0.40570402    -0.11200
C1844       C  0.68525540  0.09092605  0.40571500     0.15300
C1845       C  0.68834714  0.07039795  0.39275602     0.02200
C1846       C  0.71478470  0.08427853  0.38055292    -0.15600
C1847       C  0.73768074  0.11849674  0.38051892    -0.10400
C1848       C  0.73423717  0.13905984  0.39342069     0.08900
C1849       C  0.65828364  0.07773965  0.41920303     0.10000
S1850       S  0.65901925  0.02656751  0.39075434    -0.24700
H1851       H  0.71695210  0.06831501  0.37066774     0.20200
S1852       S  0.76317661  0.18294472  0.39561601    -0.30400
H1853       H  0.70558791  0.14087577  0.41561654     0.10500
C1854       C  0.65667584  0.05657935  0.43324491     0.03700
C1855       C  0.62952458  0.04349489  0.44509643    -0.12700
C1856       C  0.60441881  0.05181634  0.44342409    -0.08400
C1857       C  0.60659594  0.07360643  0.42948501     0.07200
C1858       C  0.63360724  0.08652183  0.41771219    -0.13500
S1859       S  0.68968653  0.04716788  0.43641343    -0.30400
H1860       H  0.62806938  0.02715942  0.45588704     0.11400
S1861       S  0.57500303  0.08459968  0.42529647    -0.27500
H1862       H  0.63492768  0.10284025  0.40691498     0.08700
H1863       H  0.79166796  0.17997903  0.39330007     0.27100
H1864       H  0.67589559  0.02642991  0.45149053     0.21900
H1865       H  0.54806495  0.05264903  0.42870728     0.27200
H1866       H  0.63120790  0.02795789  0.39706251     0.16000
C1867       C  0.92749614  0.32215471  0.39119416    -0.11200
C1868       C  0.90652441  0.31977353  0.40536663     0.15300
C1869       C  0.87358031  0.29300047  0.40580514     0.02200
C1870       C  0.86228250  0.26936640  0.39198962    -0.15600
C1871       C  0.88336657  0.27140466  0.37786530    -0.10400
C1872       C  0.91628296  0.29845835  0.37743710     0.08900
C1873       C  0.91943296  0.34657259  0.41893787     0.10000
S1874       S  0.84498141  0.28735722  0.42370227    -0.24700
H1875       H  0.83709314  0.24857825  0.39260347     0.20200
S1876       S  0.94467759  0.30509596  0.35934239    -0.30400
H1877       H  0.95266202  0.34302994  0.39069575     0.10500
C1878       C  0.94134403  0.34842855  0.43258982     0.03700
C1879       C  0.95459337  0.37538925  0.44453632    -0.12700
C1880       C  0.94657635  0.40072486  0.44301273    -0.08400
C1881       C  0.92473548  0.39880475  0.42913487     0.07200
C1882       C  0.91104391  0.37152775  0.41747107    -0.13500
S1883       S  0.95206063  0.31621776  0.43487937    -0.30400
H1884       H  0.97122049  0.37672748  0.45515323     0.11400
S1885       S  0.91514475  0.43126329  0.42473422    -0.27500
H1886       H  0.89462791  0.37030244  0.40673503     0.08700
H1887       H  0.92008494  0.29337459  0.34586394     0.27100
H1888       H  0.97410590  0.33048082  0.44945045     0.21900
H1889       H  0.94769772  0.45744329  0.42784232     0.27200
H1890       H  0.86903477  0.30278513  0.43727068     0.16000
C1891       C  0.93389242  0.13375547  0.40235866    -0.11200
C1892       C  0.91984844  0.09937603  0.40446827     0.15300
C1893       C  0.89326916  0.07778609  0.39319526     0.02200
C1894       C  0.88079928  0.09099471  0.38048983    -0.15600
C1895       C  0.89487647  0.12550290  0.37823445    -0.10400
C1896       C  0.92229552  0.14703679  0.38921236     0.08900
C1897       C  0.93291209  0.08680754  0.41880396     0.10000
S1898       S  0.87429090  0.03319161  0.39426646    -0.24700
H1899       H  0.86000467  0.07402829  0.37216957     0.20200
S1900       S  0.94264651  0.19161106  0.38791074    -0.30400
H1901       H  0.95414514  0.15043061  0.41107162     0.10500
C1902       C  0.96587211  0.09293939  0.41838400     0.03700
C1903       C  0.97676809  0.07950985  0.43184489    -0.12700
C1904       C  0.95546516  0.05996133  0.44573589    -0.08400
C1905       C  0.92294422  0.05517852  0.44659649     0.07200
C1906       C  0.91198299  0.06842980  0.43307552    -0.13500
S1907       S  0.99356434  0.11609794  0.40015163    -0.30400
H1908       H  0.00166889  0.08311858  0.43112376     0.11400
S1909       S  0.89469233  0.03340567  0.46479962    -0.27500
H1910       H  0.88691470  0.06445827  0.43367756     0.08700
H1911       H  0.95414593  0.19236439  0.37028884     0.27100
H1912       H  0.02240981  0.11796430  0.40747910     0.21900
H1913       H  0.91948697  0.04410029  0.47813850     0.27200
H1914       H  0.90330691  0.03280349  0.39929204     0.16000
C1915       C  0.59510625  0.12872410  0.91621668    -0.11200
C1916       C  0.58570536  0.15305898  0.91661161     0.15300
C1917       C  0.56211259  0.15057368  0.92940990     0.02200
C1918       C  0.54808272  0.12365239  0.94127259    -0.15600
C1919       C  0.55732616  0.09911545  0.94092072    -0.10400
C1920       C  0.58104661  0.10170926  0.92804743     0.08900
C1921       C  0.59880042  0.17916966  0.90259387     0.10000
S1922       S  0.54893466  0.18097148  0.93133201    -0.24700
H1923       H  0.53006025  0.12213614  0.95104857     0.20200
S1924       S  0.59285114  0.07047939  0.92506560    -0.30400
H1925       H  0.61268199  0.13018576  0.90615243     0.10500
C1926       C  0.63260649  0.20387673  0.90195279     0.03700
C1927       C  0.64348971  0.22855335  0.88865531    -0.12700
C1928       C  0.62128280  0.22903405  0.87591357    -0.08400
C1929       C  0.58766409  0.20324031  0.87618760     0.07200
C1930       C  0.57680976  0.17892426  0.88958189    -0.13500
S1931       S  0.66155106  0.20506355  0.91861836    -0.30400
H1932       H  0.66919508  0.24824987  0.88859589     0.11400
S1933       S  0.55758290  0.19908863  0.85954004    -0.27500
H1934       H  0.55098040  0.15941458  0.88980689     0.08700
H1935       H  0.56022880  0.04354950  0.92662482     0.27100
H1936       H  0.69036510  0.23140518  0.91094847     0.21900
H1937       H  0.58023498  0.20931728  0.84513668     0.27200
H1938       H  0.57908959  0.20821764  0.92558162     0.16000
C1939       C  0.81613785  0.43648294  0.89093349    -0.11200
C1940       C  0.81919518  0.41570099  0.90352086     0.15300
C1941       C  0.79617781  0.38131919  0.90327566     0.02200
C1942       C  0.77139881  0.36830370  0.89010178    -0.15600
C1943       C  0.76822109  0.38893974  0.87741182    -0.10400
C1944       C  0.79110460  0.42350351  0.87781328     0.08900
C1945       C  0.84738544  0.43012158  0.91628526     0.10000
S1946       S  0.79686071  0.35279405  0.91952382    -0.25700
H1947       H  0.75376093  0.34188322  0.89013643     0.20200
S1948       S  0.79078183  0.45212760  0.86153581    -0.30400
H1949       H  0.83393081  0.46286211  0.89104232     0.10500
C1950       C  0.87396975  0.42386091  0.91452911     0.03700
C1951       C  0.89859512  0.43521464  0.92786257    -0.12700
C1952       C  0.89759751  0.45334988  0.94273700    -0.08400
C1953       C  0.87131313  0.46031260  0.94419480     0.07200
C1954       C  0.84665269  0.44883732  0.93088767    -0.13500
S1955       S  0.87690064  0.40209602  0.89508048    -0.30400
H1956       H  0.91915124  0.43056925  0.92652476     0.11400
S1957       S  0.86692914  0.48222690  0.96305679    -0.27500
H1958       H  0.82612226  0.45355522  0.93222333     0.08700
H1959       H  0.78220742  0.43020833  0.84685273     0.27100
H1960       H  0.90675341  0.40329339  0.89999136     0.21900
H1961       H  0.87951523  0.46915098  0.97593091     0.27200
H1962       H  0.80990181  0.37554637  0.93384252     0.16000
C1963       C  0.53486777  0.40451172  0.91740053    -0.11200
C1964       C  0.56809094  0.41225937  0.91839500     0.15300
C1965       C  0.58918851  0.43471978  0.93160791     0.02200
C1966       C  0.57670685  0.44928176  0.94339825    -0.15600
C1967       C  0.54345280  0.44177469  0.94239572    -0.10400
C1968       C  0.52242573  0.41932556  0.92903054     0.08900
C1969       C  0.58077232  0.39902207  0.90437930     0.10000
S1970       S  0.63233054  0.44623236  0.93390342    -0.24700
H1971       H  0.59308639  0.46649286  0.95352040     0.20200
S1972       S  0.48041009  0.41045650  0.92509242    -0.30400
H1973       H  0.51890527  0.38784328  0.90696701     0.10500
C1974       C  0.57454631  0.36614875  0.90491389     0.03700
C1975       C  0.58774817  0.35502956  0.89139860    -0.12700
C1976       C  0.60696636  0.37620006  0.87734862    -0.08400
C1977       C  0.61177153  0.40870018  0.87652205     0.07200
C1978       C  0.59906505  0.41986891  0.89014985    -0.13500
S1979       S  0.55097345  0.33893097  0.92319070    -0.30400
H1980       H  0.58399173  0.33013180  0.89208153     0.11400
S1981       S  0.63254495  0.43667265  0.85812667    -0.27500
H1982       H  0.60310598  0.44491260  0.88957230     0.08700
H1983       H  0.48773416  0.44347903  0.92743742     0.27100
H1984       H  0.55369303  0.31145970  0.91763019     0.21900
H1985       H  0.62097901  0.41169978  0.84488606     0.27200
H1986       H  0.62900574  0.41644519  0.92721264     0.16000
C1987       C  0.50555391  0.22907938  0.78971197    -0.11200
C1988       C  0.99669090  0.24812694  0.77879632     0.15300
C1989       C  0.52117753  0.28172083  0.77524332     0.02200
C1990       C  0.55213867  0.29585902  0.78394943    -0.15600
C1991       C  0.56005830  0.27692823  0.79552321    -0.10400
C1992       C  0.53664536  0.24294022  0.79805610     0.08900
C1993       C  0.96324103  0.23159895  0.77034029     0.10000
S1994       S  0.51339843  0.30790883  0.76047070    -0.24700
H1995       H  0.56989202  0.32196925  0.78197720     0.20200
S1996       S  0.54514579  0.21568401  0.81145270    -0.30400
H1997       H  0.98759201  0.20293573  0.79178954     0.10500
C1998       C  0.95520024  0.20783499  0.75665938     0.03700
C1999       C  0.92351168  0.19267899  0.74893011    -0.12700
C2000       C  0.89975795  0.20152010  0.75397329    -0.08400
C2001       C  0.90742376  0.22458273  0.76809447     0.07200
C2002       C  0.93911982  0.23935650  0.77615642    -0.13500
S2003       S  0.98584654  0.19799373  0.74832173    -0.30400
H2004       H  0.91744579  0.17437145  0.73846565     0.11400
S2005       S  0.87797961  0.23693017  0.77514231    -0.27500
H2006       H  0.94547778  0.25748819  0.78678662     0.08700
H2007       H  0.57953475  0.23221097  0.80805508     0.27100
H2008       H  0.96611126  0.17595437  0.73466221     0.21900
H2009       H  0.89685386  0.25729157  0.78954408     0.27200
H2010       H  0.99035555  0.28364159  0.74974029     0.16000
C2011       C  0.79636851  0.06160034  0.77524506    -0.11200
C2012       C  0.76464419  0.03793149  0.76908774     0.15300
C2013       C  0.74975391  0.04659803  0.75515025     0.02200
C2014       C  0.76710229  0.07827213  0.74751157    -0.15600
C2015       C  0.79972831  0.10147948  0.75284469    -0.10400
C2016       C  0.81411723  0.09307316  0.76724261     0.08900
C2017       C  0.74725594  0.00499964  0.77798986     0.10000
S2018       S  0.70863951  0.01872523  0.74655254    -0.24700
H2019       H  0.75513777  0.08459746  0.73697328     0.20200
S2020       S  0.85521189  0.12067005  0.77571043    -0.30400
H2021       H  0.80764937  0.05523418  0.78617480     0.10500
C2022       C  0.74672657  0.47747849  0.77147324     0.03700
C2023       C  0.73032158  0.44687577  0.78066968    -0.12700
C2024       C  0.71695881  0.44441475  0.79800174    -0.08400
C2025       C  0.71979737  0.47358199  0.80591201     0.07200
C2026       C  0.73659328  0.50394365  0.79686706    -0.13500
S2027       S  0.77630068  0.98305543  0.75256000    -0.30400
H2028       H  0.72857379  0.42497297  0.77450034     0.11400
S2029       S  0.70125139  0.47395932  0.82711606    -0.27500
H2030       H  0.72367378  0.02108750  0.79721863     0.08700
H2031       H  0.86914350  0.13153323  0.75863766     0.27100
H2032       H  0.75376029  0.44597979  0.74774421     0.21900
H2033       H  0.67112929  0.44481238  0.82328200     0.27200
H2034       H  0.69741111  0.50028246  0.76394433     0.16000
C2035       C  0.75848024  0.20228393  0.77271092    -0.11200
C2036       C  0.76807169  0.23490326  0.76746833     0.15300
C2037       C  0.79397382  0.25109554  0.75486847     0.02200
C2038       C  0.80966438  0.23455434  0.74788150    -0.15600
C2039       C  0.79938302  0.20147471  0.75250518    -0.10400
C2040       C  0.77375529  0.18533065  0.76529907     0.08900
C2041       C  0.75271393  0.25246537  0.77646762     0.10000
S2042       S  0.80822364  0.29284263  0.74711227    -0.24700
H2043       H  0.82951881  0.24739605  0.73823248     0.20200
S2044       S  0.75941615  0.14283263  0.77165731    -0.30400
H2045       H  0.73895536  0.19016540  0.78262710     0.10500
C2046       C  0.72317536  0.25057622  0.77009834     0.03700
C2047       C  0.70970372  0.26769047  0.77929013    -0.12700
C2048       C  0.72526138  0.28666742  0.79474989    -0.08400
C2049       C  0.75570017  0.28949353  0.80053120     0.07200
C2050       C  0.76872349  0.27210968  0.79151179    -0.13500
S2051       S  0.70288044  0.22648363  0.75024361    -0.30400
H2052       H  0.68649042  0.26545234  0.77476922     0.11400
S2053       S  0.77985066  0.31568100  0.81899962    -0.27500
H2054       H  0.79183999  0.27419540  0.79615002     0.08700
H2055       H  0.73199946  0.13831102  0.78190283     0.27100
H2056       H  0.67776290  0.23496638  0.74931555     0.21900
H2057       H  0.77197972  0.34073947  0.81557573     0.27200
H2058       H  0.77751918  0.29171885  0.74853224     0.16000
C2059       C  0.95298337  0.25586080  0.70726490    -0.11200
C2060       C  0.96193209  0.23719040  0.69618374     0.15300
C2061       C  0.93901049  0.20316122  0.69336647     0.02200
C2062       C  0.90817454  0.18847628  0.70206774    -0.15600
C2063       C  0.89966509  0.20694790  0.71360062    -0.10400
C2064       C  0.92197930  0.24136716  0.71568508     0.08900
C2065       C  0.99558055  0.25388817  0.68811706     0.10000
S2066       S  0.94778783  0.17701310  0.67915898    -0.24700
H2067       H  0.89106124  0.16219256  0.70021818     0.20200
S2068       S  0.91257872  0.26838735  0.72870014    -0.30400
H2069       H  0.97037734  0.28203432  0.70935818     0.10500
C2070       C  0.00509150  0.27953695  0.67538377     0.03700
C2071       C  0.53706346  0.29444632  0.66756859    -0.12700
C2072       C  0.55996046  0.28449138  0.67262990    -0.08400
C2073       C  0.55066181  0.25944297  0.68581850     0.07200
C2074       C  0.51851812  0.24415430  0.69304284    -0.13500
S2075       S  0.97585591  0.29176012  0.66760618    -0.30400
H2076       H  0.54396038  0.31337971  0.65735621     0.11400
S2077       S  0.57885092  0.24668624  0.69445309    -0.27500
H2078       H  0.51147444  0.22498146  0.70314558     0.08700
H2079       H  0.87795306  0.24869492  0.72742281     0.27100
H2080       H  0.99868505  0.31957873  0.65761519     0.21900
H2081       H  0.60731126  0.27839506  0.69339854     0.27200
H2082       H  0.96865002  0.20209325  0.66708287     0.16000
C2083       C  0.72480492  0.48424317  0.69299160    -0.11200
C2084       C  0.75739311  0.00918672  0.68577371     0.15300
C2085       C  0.77273273  0.49956834  0.67386098     0.02200
C2086       C  0.75653701  0.46760015  0.66652488    -0.15600
C2087       C  0.72413907  0.44398909  0.67179791    -0.10400
C2088       C  0.70830456  0.45240489  0.68539590     0.08900
C2089       C  0.77448702  0.04233032  0.69445437     0.10000
S2090       S  0.81474563  0.02757046  0.66465761    -0.24700
H2091       H  0.76883961  0.46158735  0.65600634     0.20200
S2092       S  0.66766213  0.42348154  0.69405483    -0.30400
H2093       H  0.71275060  0.49044409  0.70356632     0.10500
C2094       C  0.76333074  0.06532038  0.69220190     0.03700
C2095       C  0.77991299  0.09601280  0.70111806    -0.12700
C2096       C  0.80701162  0.10390663  0.71248359    -0.08400
C2097       C  0.81914286  0.08150687  0.71396133     0.07200
C2098       C  0.80243468  0.05083922  0.70521504    -0.13500
S2099       S  0.72814106  0.05573443  0.67792368    -0.30400
H2100       H  0.77107107  0.11347245  0.69974941     0.11400
S2101       S  0.85596486  0.09051413  0.72649828    -0.27500
H2102       H  0.81132513  0.03340452  0.70677312     0.08700
H2103       H  0.67142816  0.39538102  0.69246286     0.27100
H2104       H  0.72643706  0.08447113  0.68179778     0.21900
H2105       H  0.87088494  0.12513681  0.72548323     0.27200
H2106       H  0.81241594  0.05651268  0.66601692     0.16000
C2107       C  0.74880952  0.20103077  0.70457251    -0.11200
C2108       C  0.76847064  0.22903031  0.69396963     0.15300
C2109       C  0.80268133  0.24006013  0.69194095     0.02200
C2110       C  0.81664620  0.22369908  0.70116833    -0.15600
C2111       C  0.79710557  0.19631638  0.71224195    -0.10400
C2112       C  0.76249124  0.18408724  0.71333781     0.08900
C2113       C  0.75243152  0.24633851  0.68557747     0.10000
S2114       S  0.82978967  0.27493891  0.67798868    -0.24700
H2115       H  0.84310662  0.23291876  0.70006632     0.20200
S2116       S  0.73411819  0.14692909  0.72541436    -0.30400
H2117       H  0.72246000  0.19224206  0.70597855     0.10500
C2118       C  0.72758660  0.23065196  0.67235101     0.03700
C2119       C  0.71181950  0.24719906  0.66535809    -0.12700
C2120       C  0.72060503  0.27933447  0.67112222    -0.08400
C2121       C  0.74534860  0.29489892  0.68451775     0.07200
C2122       C  0.76103896  0.27828270  0.69154156    -0.13500
S2123       S  0.71697422  0.19015106  0.66376013    -0.30400
H2124       H  0.69326822  0.23546833  0.65489808     0.11400
S2125       S  0.75713901  0.33522208  0.69367465    -0.27500
H2126       H  0.77971852  0.29007737  0.70195782     0.08700
H2127       H  0.75457907  0.13278231  0.72588272     0.27100
H2128       H  0.69192434  0.18668322  0.65179573     0.21900
H2129       H  0.72512750  0.33134429  0.69260576     0.27200
H2130       H  0.80540017  0.27077996  0.66537282     0.16000
C2131       C  0.54717743  0.12600768  0.55651497    -0.11200
C2132       C  0.57822987  0.15418621  0.55365717     0.15300
C2133       C  0.59620906  0.15682408  0.53780530     0.02200
C2134       C  0.58258027  0.13114327  0.52512598    -0.15600
C2135       C  0.55170952  0.10260337  0.52814849    -0.10400
C2136       C  0.53350732  0.10044846  0.54386845     0.08900
C2137       C  0.59041262  0.18088615  0.56717806     0.10000
S2138       S  0.63666638  0.19197814  0.53307767    -0.24700
H2139       H  0.59666231  0.13294591  0.51312767     0.20200
S2140       S  0.99214373  0.06577005  0.54915646    -0.30400
H2141       H  0.53313922  0.12430970  0.56851660     0.10500
C2142       C  0.59016846  0.21050605  0.56376867     0.03700
C2143       C  0.60311289  0.23571257  0.57669928    -0.12700
C2144       C  0.61592388  0.23179439  0.59310035    -0.08400
C2145       C  0.61521858  0.20157613  0.59666842     0.07200
C2146       C  0.60212973  0.17633027  0.58372780    -0.13500
S2147       S  0.57280243  0.21593620  0.54311609    -0.30400
H2148       H  0.60314932  0.25864526  0.57405738     0.11400
S2149       S  0.63214561  0.19429012  0.61687894    -0.27500
H2150       H  0.60197860  0.15330496  0.58632838     0.08700
H2151       H  0.98148933  0.06178854  0.53112126     0.27100
H2152       H  0.57823622  0.24791778  0.54691637     0.21900
H2153       H  0.66027342  0.22628032  0.61748829     0.27200
H2154       H  0.64659785  0.20059023  0.55107507     0.16000
C2155       C  0.84379914  0.41409598  0.53750328    -0.11200
C2156       C  0.84967514  0.42947364  0.55440581     0.15300
C2157       C  0.88148150  0.45610120  0.55857103     0.02200
C2158       C  0.90669684  0.46680603  0.54575058    -0.15600
C2159       C  0.90095393  0.45171409  0.52869145    -0.10400
C2160       C  0.86913234  0.42459365  0.52469848     0.08900
C2161       C  0.82249088  0.41614683  0.56766595     0.10000
S2162       S  0.89144524  0.47750498  0.57991970    -0.24700
H2163       H  0.93095747  0.48757907  0.54907197     0.20200
S2164       S  0.85972203  0.40102134  0.50412864    -0.30400
H2165       H  0.81947303  0.39315263  0.53447131     0.10500
C2166       C  0.79502785  0.42089943  0.56561324     0.03700
C2167       C  0.76906278  0.40664261  0.57810174    -0.12700
C2168       C  0.77011968  0.38785416  0.59263640    -0.08400
C2169       C  0.79777681  0.38318412  0.59464022     0.07200
C2170       C  0.82382368  0.39768905  0.58223729    -0.13500
S2171       S  0.79347256  0.44574622  0.54733468    -0.30400
H2172       H  0.74788675  0.41027994  0.57662963     0.11400
S2173       S  0.80042622  0.35745764  0.61198008    -0.27500
H2174       H  0.84489117  0.39383204  0.58364332     0.08700
H2175       H  0.89000801  0.40097174  0.50369762     0.27100
H2176       H  0.76207911  0.44166691  0.55145613     0.21900
H2177       H  0.76658104  0.33299825  0.61130643     0.27200
H2178       H  0.85962863  0.47293693  0.58325778     0.16000
C2179       C  0.54293676  0.41610242  0.55506113    -0.11200
C2180       C  0.57418466  0.41932206  0.55234311     0.15300
C2181       C  0.59138103  0.43282456  0.53607084     0.02200
C2182       C  0.57733762  0.44395961  0.52307312    -0.15600
C2183       C  0.54662525  0.44207078  0.52614429    -0.10400
C2184       C  0.52874542  0.42680740  0.54206963     0.08900
C2185       C  0.58700042  0.40640824  0.56638109     0.10000
S2186       S  0.63131123  0.43686534  0.53121445    -0.24700
H2187       H  0.59109400  0.45545434  0.51088770     0.20200
S2188       S  0.98954485  0.42190416  0.54726840    -0.30400
H2189       H  0.52932496  0.40472308  0.56731061     0.10500
C2190       C  0.60284046  0.42507676  0.58190136     0.03700
C2191       C  0.61444291  0.41155610  0.59496531    -0.12700
C2192       C  0.61022236  0.37971229  0.59273265    -0.08400
C2193       C  0.59263433  0.36045560  0.57757167     0.07200
C2194       C  0.58169038  0.37422404  0.56445208    -0.13500
S2195       S  0.60934025  0.46649760  0.58466984    -0.30400
H2196       H  0.62791139  0.42622563  0.60656854     0.11400
S2197       S  0.58252661  0.31791649  0.57437795    -0.27500
H2198       H  0.56855096  0.35962756  0.55274330     0.08700
H2199       H  0.97839366  0.41555852  0.52930993     0.27100
H2200       H  0.62455850  0.47259047  0.60170605     0.21900
H2201       H  0.57870229  0.30981342  0.59280362     0.27200
H2202       H  0.64234214  0.44031416  0.54912112     0.16000
Zn2203     Zn  0.64290158  0.78887417  0.64340568     1.49700
Zn2204     Zn  0.66681064  0.83389047  0.60865354     1.49400
Zn2205     Zn  0.64496906  0.85907191  0.64279627     1.49100
Zn2206     Zn  0.71330803  0.85723616  0.64284990     1.49500
O2207       O  0.66701033  0.83478187  0.63469276    -1.84000
O2208       O  0.62580237  0.75554676  0.62294074    -0.74600
O2209       O  0.64075141  0.85278954  0.59848914    -0.74400
O2210       O  0.60517103  0.82961784  0.65808668    -0.73900
O2211       O  0.64607848  0.78829875  0.59911491    -0.74600
O2212       O  0.60323678  0.78084073  0.65835718    -0.74200
O2213       O  0.62710457  0.87332027  0.62181501    -0.74800
O2214       O  0.72371252  0.89810432  0.65729229    -0.74200
O2215       O  0.71192637  0.85875378  0.59815186    -0.75000
O2216       O  0.67676682  0.90000670  0.65683697    -0.74300
O2217       O  0.74543417  0.87278868  0.62182984    -0.74800
O2218       O  0.72229398  0.82608731  0.65760334    -0.74700
O2219       O  0.67359666  0.77903009  0.65783822    -0.74500
C2220       C  0.63004904  0.75957897  0.60600867     0.77300
C2221       C  0.62657174  0.86769464  0.60501080     0.77800
C2222       C  0.59128949  0.79924921  0.66282102     0.76700
C2223       C  0.70710778  0.91221827  0.66145726     0.77100
C2224       C  0.74087768  0.87202273  0.60488905     0.78200
C2225       C  0.70424531  0.79574231  0.66210941     0.77300
C2226       C  0.83401319  0.66846725  0.71602514     0.45600
H2227       H  0.83429452  0.66823978  0.70106376    -0.03400
C2228       C  0.83321526  0.66894053  0.75118363     0.45700
H2229       H  0.83282690  0.66917947  0.76610854    -0.03400
C2230       C  0.81930044  0.63388112  0.72447307    -0.17100
C2231       C  0.86855374  0.68884461  0.72447239    -0.16900
C2232       C  0.81367004  0.68312024  0.72389742    -0.17200
C2233       C  0.81795504  0.63369978  0.74300365    -0.17200
C2234       C  0.86851212  0.68844816  0.74300721    -0.16800
C2235       C  0.81377541  0.68431750  0.74240380    -0.17100
Zn2236     Zn  0.69127702  0.81421903  0.84324466     1.49700
Zn2237     Zn  0.62070812  0.80906281  0.84337345     1.49400
Zn2238     Zn  0.68621041  0.88013454  0.84387916     1.49100
Zn2239     Zn  0.66670441  0.83585040  0.80767693     1.49500
O2240       O  0.66626382  0.83488237  0.83431611    -1.84000
O2241       O  0.66333880  0.77410881  0.85864116    -0.74600
O2242       O  0.60843754  0.83640384  0.85912332    -0.74400
O2243       O  0.72643040  0.89173267  0.85915204    -0.73900
O2244       O  0.61393677  0.77048415  0.85863015    -0.74600
O2245       O  0.72960341  0.84567060  0.85873207    -0.74200
O2246       O  0.65428371  0.88564834  0.85987798    -0.74800
O2247       O  0.68916122  0.88407920  0.79857912    -0.74200
O2248       O  0.58837382  0.79131182  0.82300137    -0.75000
O2249       O  0.70039463  0.91351470  0.82382681    -0.74300
O2250       O  0.61876647  0.81108418  0.79809413    -0.74800
O2251       O  0.69219278  0.81338234  0.79783277    -0.74700
O2252       O  0.70928188  0.79993465  0.82278565    -0.74500
C2253       C  0.63310098  0.75980786  0.86362040     0.77300
C2254       C  0.62438761  0.86624567  0.86469859     0.77800
C2255       C  0.74044879  0.87541102  0.86393327     0.76700
C2256       C  0.70040562  0.91190148  0.80671191     0.77100
C2257       C  0.59071436  0.79425443  0.80596368     0.78200
C2258       C  0.70802851  0.80097508  0.80569863     0.77300
Zn2259     Zn  0.83339590  0.66518048  0.30922133     1.49700
Zn2260     Zn  0.81435200  0.62258044  0.34621746     1.49400
Zn2261     Zn  0.88090316  0.69290462  0.34434508     1.49100
Zn2262     Zn  0.81115792  0.68925295  0.34462117     1.49500
O2263       O  0.83497959  0.66737537  0.33584645    -1.84000
O2264       O  0.81348864  0.61662607  0.30110892    -0.74600
O2265       O  0.84609131  0.61715372  0.36236074    -0.74400
O2266       O  0.91237639  0.71106000  0.32345243    -0.73900
O2267       O  0.80038407  0.58820946  0.32679229    -0.74600
O2268       O  0.88084805  0.69237606  0.29885539    -0.74200
O2269       O  0.89308593  0.66495942  0.35973630    -0.74800
O2270       O  0.83953170  0.72912107  0.36008135    -0.74200
O2271       O  0.77469926  0.61248092  0.36170741    -0.75000
O2272       O  0.88832453  0.73129935  0.36024812    -0.74300
O2273       O  0.77331464  0.65938323  0.36044427    -0.74800
O2274       O  0.79179254  0.70196511  0.32428439    -0.74700
O2275       O  0.80415784  0.68373823  0.29942337    -0.74500
C2276       C  0.80187116  0.58918683  0.30967869     0.77300
C2277       C  0.87654060  0.63600713  0.36641402     0.77800
C2278       C  0.90931840  0.70924610  0.30638346     0.76700
C2279       C  0.86954174  0.74237353  0.36537790     0.77100
C2280       C  0.76214258  0.63017314  0.36646296     0.78200
C2281       C  0.78961111  0.69744947  0.30734017     0.77300
C2282       C  0.66986938  0.83503535  0.21748525     0.45600
H2283       H  0.67045472  0.83546660  0.20253969    -0.03400
C2284       C  0.66750468  0.83326260  0.25262909     0.45700
H2285       H  0.66607308  0.83236386  0.26754301    -0.03400
C2286       C  0.63432574  0.81721508  0.22509606    -0.17100
C2287       C  0.68702751  0.81723401  0.22596696    -0.16900
C2288       C  0.68707043  0.86971001  0.22620744    -0.17200
C2289       C  0.63294121  0.81648863  0.24354817    -0.17200
C2290       C  0.68518482  0.81546093  0.24450975    -0.16800
C2291       C  0.68622173  0.86893576  0.24476167    -0.17100
Zn2292     Zn  0.78840171  0.64352856  0.14080255     1.49700
Zn2293     Zn  0.85703693  0.64202922  0.14181723     1.49400
Zn2294     Zn  0.83720706  0.66782711  0.10739400     1.49100
Zn2295     Zn  0.85798313  0.71208291  0.14295719     1.49500
O2296       O  0.83520573  0.66649057  0.13350818    -1.84000
O2297       O  0.77804499  0.60335164  0.15574880    -0.74600
O2298       O  0.87596054  0.62807385  0.12117176    -0.74400
O2299       O  0.79265238  0.64184617  0.09614390    -0.73900
O2300       O  0.82465714  0.60083730  0.15555980    -0.74600
O2301       O  0.75770045  0.62573624  0.11915652    -0.74200
O2302       O  0.86470400  0.64994152  0.09760843    -0.74800
O2303       O  0.87429974  0.74569245  0.12253108    -0.74200
O2304       O  0.89688125  0.67158182  0.15703567    -0.75000
O2305       O  0.85767826  0.71358369  0.09821297    -0.74300
O2306       O  0.89885744  0.72042312  0.15744727    -0.74800
O2307       O  0.82602711  0.72083191  0.15760386    -0.74700
O2308       O  0.77734964  0.67424425  0.15489917    -0.74500
C2309       C  0.79414968  0.58870445  0.15983740     0.77300
C2310       C  0.87782761  0.63417254  0.10437867     0.77800
C2311       C  0.76327609  0.62642569  0.10232148     0.76700
C2312       C  0.87209961  0.74204511  0.10549488     0.77100
C2313       C  0.91134361  0.70216136  0.16137873     0.78200
C2314       C  0.79479550  0.70396843  0.16062178     0.77300
Zn2315     Zn  0.50160202  0.50149300  0.00999401     1.49700
Zn2316     Zn  0.97972659  0.52499906  0.97572170     1.49400
Zn2317     Zn  0.54659043  0.52076494  0.97536468     1.49100
Zn2318     Zn  0.97287696  0.95309723  0.97695218     1.49500
O2319       O  0.50066964  0.50087253  0.98404430    -1.84000
O2320       O  0.98306986  0.52765518  0.01998039    -0.74600
O2321       O  0.51200749  0.56385570  0.95948463    -0.74400
O2322       O  0.58027199  0.53596059  0.99577792    -0.73900
O2323       O  0.96695899  0.54518766  0.99629526    -0.74600
O2324       O  0.54728384  0.52036034  0.01970068    -0.74200
O2325       O  0.55773617  0.55988412  0.95947803    -0.74800
O2326       O  0.50078193  0.94019244  0.96179037    -0.74200
O2327       O  0.93881090  0.99651408  0.96051786    -0.75000
O2328       O  0.55098830  0.98534295  0.96125640    -0.74300
O2329       O  0.93542344  0.94708376  0.96078980    -0.74800
O2330       O  0.95414374  0.92118062  0.99817591    -0.74700
O2331       O  0.97354804  0.95617048  0.02113067    -0.74500
C2332       C  0.97016441  0.54368523  0.01325494     0.77300
C2333       C  0.54150545  0.57363577  0.95406360     0.77800
C2334       C  0.57603700  0.53318375  0.01276672     0.76700
C2335       C  0.53081006  0.95560608  0.95643517     0.77100
C2336       C  0.92506084  0.96636334  0.95544197     0.78200
C2337       C  0.95683250  0.92680915  0.01506260     0.77300
Zn2338     Zn  0.52369974  0.97703367  0.47621295     1.49700
Zn2339     Zn  0.50192291  0.50019479  0.51159736     1.49400
Zn2340     Zn  0.52572939  0.54737838  0.47797768     1.49100
Zn2341     Zn  0.95549945  0.98109456  0.47760789     1.49500
O2342       O  0.50126513  0.50097774  0.48567168    -1.84000
O2343       O  0.53783845  0.95705813  0.49644955    -0.74600
O2344       O  0.52508512  0.54507391  0.52214750    -0.74400
O2345       O  0.56403290  0.55542245  0.46228689    -0.73900
O2346       O  0.52381081  0.97576855  0.52042219    -0.74600
O2347       O  0.56201315  0.50664726  0.46082667    -0.74200
O2348       O  0.54202898  0.57962007  0.49891389    -0.74800
O2349       O  0.94800292  0.51293804  0.46352710    -0.74200
O2350       O  0.95748740  0.97834076  0.52195815    -0.75000
O2351       O  0.99760739  0.55870864  0.46326132    -0.74300
O2352       O  0.92332115  0.96491847  0.49866497    -0.74800
O2353       O  0.94447636  0.94211257  0.46133349    -0.74700
O2354       O  0.99105697  0.93957586  0.46065501    -0.74500
C2355       C  0.53551832  0.95889349  0.51346163     0.77300
C2356       C  0.53895068  0.57425836  0.51580127     0.77800
C2357       C  0.57475773  0.53696894  0.45615698     0.76700
C2358       C  0.96714822  0.54286451  0.45865673     0.77100
C2359       C  0.92831207  0.96546757  0.51556405     0.78200
C2360       C  0.96113606  0.92893068  0.45568085     0.77300
C2361       C  0.62975672  0.54036703  0.05273391    -0.11200
C2362       C  0.65616141  0.57286516  0.05070807     0.15300
C2363       C  0.65721167  0.59164027  0.03551968     0.02200
C2364       C  0.63168763  0.57748329  0.02270575    -0.15600
C2365       C  0.60475277  0.54522119  0.02499296    -0.10400
C2366       C  0.60418413  0.52630595  0.04004287     0.08900
C2367       C  0.68294398  0.58573523  0.06427553     0.10000
S2368       S  0.68990583  0.63389686  0.03196565    -0.24700
H2369       H  0.63210219  0.59223316  0.01131457     0.20200
S2370       S  0.57172586  0.98310886  0.04441917    -0.30400
H2371       H  0.62927768  0.52576365  0.06421355     0.10500
C2372       C  0.67879513  0.59632954  0.08134516     0.03700
C2373       C  0.70501647  0.60850208  0.09378348    -0.12700
C2374       C  0.73516258  0.60984971  0.08955248    -0.08400
C2375       C  0.73833125  0.59727475  0.07272512     0.07200
C2376       C  0.71249658  0.58604794  0.06018641    -0.13500
S2377       S  0.64059075  0.59554351  0.08700796    -0.30400
H2378       H  0.70238276  0.61795142  0.10662111     0.11400
S2379       S  0.77384386  0.59336324  0.06664855    -0.27500
H2380       H  0.71514222  0.57684155  0.04724855     0.08700
H2381       H  0.56611463  0.97474553  0.02604805     0.27100
H2382       H  0.64834023  0.60453918  0.10520088     0.21900
H2383       H  0.77851116  0.58428802  0.08402331     0.27200
H2384       H  0.69717025  0.64231585  0.05023223     0.16000
C2385       C  0.91460559  0.79795326  0.06582596    -0.11200
C2386       C  0.90531170  0.82209185  0.06808464     0.15300
C2387       C  0.88672766  0.82102369  0.08338530     0.02200
C2388       C  0.87780429  0.79569970  0.09607286    -0.15600
C2389       C  0.88646475  0.77108818  0.09356294    -0.10400
C2390       C  0.90569157  0.77269446  0.07844553     0.08900
C2391       C  0.91747983  0.84918050  0.05479655     0.10000
S2392       S  0.87332971  0.85083287  0.08737458    -0.24700
H2393       H  0.86280783  0.79437687  0.10756507     0.20200
S2394       S  0.92033739  0.74376526  0.07471888    -0.30400
H2395       H  0.92948966  0.79920695  0.05428990     0.10500
C2396       C  0.94522802  0.88033026  0.05858171     0.03700
C2397       C  0.95705007  0.90500423  0.04537298    -0.12700
C2398       C  0.94177568  0.89934122  0.02833407    -0.08400
C2399       C  0.91350081  0.86801625  0.02472828     0.07200
C2400       C  0.90205528  0.84315817  0.03789475    -0.13500
S2401       S  0.96628785  0.88829294  0.08004045    -0.30400
H2402       H  0.97883241  0.92874611  0.04827603     0.11400
S2403       S  0.89014059  0.85848310  0.00406543    -0.27500
H2404       H  0.88061734  0.81905498  0.03507464     0.08700
H2405       H  0.92337051  0.73807664  0.09304503     0.27100
H2406       H  0.99137978  0.92105472  0.07639714     0.21900
H2407       H  0.89128728  0.88927431  0.00313505     0.27200
H2408       H  0.87273566  0.85928658  0.06927366     0.16000
C2409       C  0.91117899  0.58367255  0.08135958    -0.11200
C2410       C  0.92730539  0.60398077  0.06650302     0.15300
C2411       C  0.92894990  0.63491579  0.06482305     0.02200
C2412       C  0.91301021  0.64418619  0.07756018    -0.15600
C2413       C  0.89576132  0.62343579  0.09217312    -0.10400
C2414       C  0.89520651  0.59291252  0.09414457     0.08900
C2415       C  0.93973813  0.59092934  0.05229146     0.10000
S2416       S  0.95044674  0.66328602  0.04659965    -0.24700
H2417       H  0.91404482  0.66787392  0.07601211     0.20200
S2418       S  0.87261088  0.56357841  0.11176078    -0.30400
H2419       H  0.90983921  0.55979165  0.08256630     0.10500
C2420       C  0.96942453  0.59023434  0.05452895     0.03700
C2421       C  0.97907141  0.57544844  0.04125272    -0.12700
C2422       C  0.95944095  0.56102047  0.02583694    -0.08400
C2423       C  0.92976069  0.56209027  0.02357909     0.07200
C2424       C  0.92049622  0.57745978  0.03672496    -0.13500
S2425       S  0.99502937  0.60833292  0.07424577    -0.30400
H2426       H  0.00193340  0.57485029  0.04295045     0.11400
S2427       S  0.90151922  0.54236437  0.00505699    -0.27500
H2428       H  0.89744983  0.57779280  0.03517986     0.08700
H2429       H  0.84434433  0.56718904  0.11039215     0.27100
H2430       H  0.52143072  0.60382038  0.06891772     0.21900
H2431       H  0.90456232  0.51373007  0.00510442     0.27200
H2432       H  0.97424474  0.65347348  0.04379219     0.16000
C2433       C  0.99919873  0.72376359  0.17487893    -0.11200
C2434       C  0.50806429  0.74918487  0.18779734     0.15300
C2435       C  0.98204090  0.75587490  0.19311137     0.02200
C2436       C  0.95143600  0.74097060  0.18407042    -0.15600
C2437       C  0.94406537  0.71708791  0.17060248    -0.10400
C2438       C  0.96851030  0.70856205  0.16595978     0.08900
C2439       C  0.54173159  0.76575324  0.19607181     0.10000
S2440       S  0.98814864  0.78487571  0.21082418    -0.24700
H2441       H  0.93298918  0.74765037  0.18781428     0.20200
S2442       S  0.96313652  0.68005898  0.14806152    -0.30400
H2443       H  0.51917789  0.71884687  0.17051690     0.10500
C2444       C  0.55227350  0.74833432  0.20732624     0.03700
C2445       C  0.58336338  0.76552363  0.21583487    -0.12700
C2446       C  0.60395647  0.79994039  0.21367291    -0.08400
C2447       C  0.59376505  0.81710617  0.20197053     0.07200
C2448       C  0.56306958  0.79981976  0.19312847    -0.13500
S2449       S  0.52562908  0.70452978  0.21153637    -0.30400
H2450       H  0.59136967  0.75233240  0.22466880     0.11400
S2451       S  0.61767967  0.86125336  0.19870898    -0.27500
H2452       H  0.55513093  0.81326403  0.18441997     0.08700
H2453       H  0.94781129  0.69188964  0.13615636     0.27100
H2454       H  0.54496932  0.70187734  0.22532792     0.21900
H2455       H  0.62448337  0.86804251  0.21712230     0.27200
H2456       H  0.51054010  0.77936556  0.22085514     0.16000
C2457       C  0.74005366  0.94057060  0.19371696    -0.11200
C2458       C  0.72974419  0.96341237  0.19794907     0.15300
C2459       C  0.70388658  0.95448205  0.21050221     0.02200
C2460       C  0.69038674  0.92385179  0.21929003    -0.15600
C2461       C  0.70132744  0.90119032  0.21552801    -0.10400
C2462       C  0.72586731  0.90942248  0.20213547     0.08900
C2463       C  0.74616325  0.99604215  0.18874900     0.10000
S2464       S  0.68658704  0.98068793  0.21562126    -0.24700
H2465       H  0.67111750  0.91766731  0.22923315     0.20200
S2466       S  0.74025494  0.88125949  0.19590216    -0.30400
H2467       H  0.75940656  0.94737339  0.18374936     0.10500
C2468       C  0.78005444  0.51947537  0.19185566     0.03700
C2469       C  0.79504385  0.54943348  0.18221753    -0.12700
C2470       C  0.77698633  0.55660624  0.16956967    -0.08400
C2471       C  0.74315926  0.53277725  0.16640960     0.07200
C2472       C  0.72823493  0.50302508  0.17611760    -0.13500
S2473       S  0.80383365  0.51162544  0.20842220    -0.30400
H2474       H  0.82088884  0.56754379  0.18467487     0.11400
S2475       S  0.71809938  0.53770102  0.14946694    -0.27500
H2476       H  0.70312245  0.98400810  0.17256325     0.08700
H2477       H  0.76284862  0.90112789  0.18250877     0.27100
H2478       H  0.83349213  0.54219123  0.20666188     0.21900
H2479       H  0.74348554  0.55109351  0.13644989     0.27200
H2480       H  0.71611477  0.51109523  0.21320930     0.16000
C2481       C  0.75086534  0.79547568  0.20790988    -0.11200
C2482       C  0.73151959  0.76979762  0.19581878     0.15300
C2483       C  0.69788386  0.76086786  0.19314159     0.02200
C2484       C  0.68451160  0.77764261  0.20260135    -0.15600
C2485       C  0.70382458  0.80313205  0.21483201    -0.10400
C2486       C  0.73770230  0.81245209  0.21722707     0.08900
C2487       C  0.74730137  0.75278105  0.18650392     0.10000
S2488       S  0.67056993  0.72802938  0.17810424    -0.24700
H2489       H  0.65851524  0.77010788  0.20079603     0.20200
S2490       S  0.76591538  0.84582196  0.23176270    -0.30400
H2491       H  0.77663226  0.80243128  0.21007563     0.10500
C2492       C  0.77369268  0.76991861  0.17425854     0.03700
C2493       C  0.78911141  0.75356786  0.16643084    -0.12700
C2494       C  0.77832111  0.72005449  0.17018628    -0.08400
C2495       C  0.75156083  0.70274865  0.18231369     0.07200
C2496       C  0.73661181  0.71940121  0.19045162    -0.13500
S2497       S  0.78702109  0.81235400  0.16806101    -0.30400
H2498       H  0.80921924  0.76675319  0.15696551     0.11400
S2499       S  0.73725031  0.65999429  0.18821339    -0.27500
H2500       H  0.71667980  0.70655773  0.20005493     0.08700
H2501       H  0.74846224  0.86318723  0.23178897     0.27100
H2502       H  0.81079496  0.81587377  0.15520457     0.21900
H2503       H  0.71065030  0.65538839  0.19923560     0.27200
H2504       H  0.69527220  0.73198653  0.16580204     0.16000
C2505       C  0.77701816  0.50012226  0.29724698    -0.11200
C2506       C  0.75703691  0.99526586  0.28224547     0.15300
C2507       C  0.75502330  0.52215756  0.27493116     0.02200
C2508       C  0.77046778  0.55274264  0.28392445    -0.15600
C2509       C  0.78906876  0.55745832  0.29965970    -0.10400
C2510       C  0.79305130  0.53089905  0.30607100     0.08900
C2511       C  0.73993376  0.96167913  0.27391505     0.10000
S2512       S  0.73149675  0.51874330  0.25498863    -0.24700
H2513       H  0.76725839  0.57280634  0.27880728     0.20200
S2514       S  0.81891731  0.53481520  0.32511243    -0.30400
H2515       H  0.78293970  0.98187135  0.30153892     0.10500
C2516       C  0.75641174  0.95175692  0.26163246     0.03700
C2517       C  0.73854394  0.92105363  0.25280679    -0.12700
C2518       C  0.70439909  0.89975249  0.25598126    -0.08400
C2519       C  0.68834327  0.90940645  0.26878020     0.07200
C2520       C  0.70620681  0.94004488  0.27764146    -0.13500
S2521       S  0.79988078  0.97883724  0.25663189    -0.30400
H2522       H  0.75106117  0.91382224  0.24306030     0.11400
S2523       S  0.64459420  0.88513244  0.27316715    -0.27500
H2524       H  0.69342836  0.94765922  0.28703712     0.08700
H2525       H  0.84311827  0.56800182  0.32160139     0.27100
H2526       H  0.80276509  0.95822256  0.24375800     0.21900
H2527       H  0.63673449  0.88141124  0.25475684     0.27200
H2528       H  0.73273117  0.99451240  0.24745969     0.16000
C2529       C  0.99659358  0.77297344  0.29129165    -0.11200
C2530       C  0.50228416  0.75652901  0.27686537     0.15300
C2531       C  0.97519714  0.72541729  0.27132300     0.02200
C2532       C  0.94479645  0.71093424  0.28063792    -0.15600
C2533       C  0.93998279  0.72708658  0.29533471    -0.10400
C2534       C  0.96599830  0.75907374  0.30018708     0.08900
C2535       C  0.53589387  0.77240581  0.26847713     0.10000
S2536       S  0.48049041  0.70186276  0.25327389    -0.24700
H2537       H  0.92503769  0.68657509  0.27662506     0.20200
S2538       S  0.96149302  0.78408047  0.31720918    -0.30400
H2539       H  0.01655705  0.79711460  0.29546629     0.10500
C2540       C  0.54850415  0.80199900  0.25837787     0.03700
C2541       C  0.58036310  0.81614557  0.25092155    -0.12700
C2542       C  0.60068916  0.80204982  0.25353204    -0.08400
C2543       C  0.58834645  0.77271804  0.26380479     0.07200
C2544       C  0.55612889  0.75821342  0.27115879    -0.13500
S2545       S  0.52512530  0.82281600  0.25431010    -0.30400
H2546       H  0.58904785  0.83801483  0.24259629     0.11400
S2547       S  0.61262923  0.75255415  0.26666888    -0.27500
H2548       H  0.54649492  0.73563346  0.27898845     0.08700
H2549       H  0.92756734  0.77231517  0.31387425     0.27100
H2550       H  0.49368050  0.79394748  0.25390374     0.21900
H2551       H  0.58920431  0.72560693  0.27696375     0.27200
H2552       H  0.50221391  0.72986478  0.24306832     0.16000
C2553       C  0.72661670  0.72418102  0.29574133    -0.11200
C2554       C  0.73898521  0.74059808  0.27935391     0.15300
C2555       C  0.76631252  0.74005172  0.27127133     0.02200
C2556       C  0.78123703  0.72405435  0.28008921    -0.15600
C2557       C  0.76981091  0.70892991  0.29696015    -0.10400
C2558       C  0.74120234  0.70792674  0.30443139     0.08900
C2559       C  0.72293267  0.75826346  0.27125346     0.10000
S2560       S  0.78382352  0.75988816  0.24999980    -0.24700
H2561       H  0.80290508  0.72481589  0.27412481     0.20200
S2562       S  0.72137980  0.68557102  0.32477541    -0.30400
H2563       H  0.70517416  0.72383363  0.30176347     0.10500
C2564       C  0.70117617  0.74515921  0.25649434     0.03700
C2565       C  0.68736200  0.76328546  0.24907089    -0.12700
C2566       C  0.69641867  0.79540574  0.25523425    -0.08400
C2567       C  0.71716324  0.80773095  0.27060773     0.07200
C2568       C  0.72968744  0.78883686  0.27856352    -0.13500
S2569       S  0.69114177  0.70549477  0.24696854    -0.30400
H2570       H  0.66987527  0.75261637  0.23807326     0.11400
S2571       S  0.73032089  0.84793025  0.28018621    -0.27500
H2572       H  0.74606050  0.79871009  0.29010726     0.08700
H2573       H  0.72825655  0.65971106  0.32176024     0.27100
H2574       H  0.67609117  0.70849855  0.23116662     0.21900
H2575       H  0.73836510  0.86393594  0.26348054     0.27200
H2576       H  0.77484475  0.78455972  0.25106695     0.16000
C2577       C  0.70401502  0.62327307  0.40435011    -0.11200
C2578       C  0.68120814  0.58916494  0.40419787     0.15300
C2579       C  0.68442038  0.56873448  0.39122430     0.02200
C2580       C  0.71125263  0.58264617  0.37926432    -0.15600
C2581       C  0.73445163  0.61679244  0.37952797    -0.10400
C2582       C  0.73067533  0.63728136  0.39233996     0.08900
C2583       C  0.65451715  0.57586872  0.41783248     0.10000
S2584       S  0.65493044  0.52497814  0.38901694    -0.24700
H2585       H  0.71362317  0.56675970  0.36940804     0.20200
S2586       S  0.75979560  0.68105397  0.39487386    -0.30400
H2587       H  0.70151286  0.63898524  0.41427886     0.10500
C2588       C  0.65352857  0.55497213  0.43186411     0.03700
C2589       C  0.62704271  0.54230713  0.44413090    -0.12700
C2590       C  0.60204603  0.55084235  0.44289930    -0.08400
C2591       C  0.60355909  0.57231889  0.42894480     0.07200
C2592       C  0.62989361  0.58478499  0.41673426    -0.13500
S2593       S  0.68659071  0.54549116  0.43454229    -0.30400
H2594       H  0.62606010  0.52617157  0.45491786     0.11400
S2595       S  0.57197489  0.58354152  0.42534055    -0.27500
H2596       H  0.63079326  0.60096922  0.40596748     0.08700
H2597       H  0.78820138  0.67774661  0.39320540     0.27100
H2598       H  0.67361834  0.52529102  0.44987645     0.21900
H2599       H  0.54507788  0.55176260  0.42914381     0.27200
H2600       H  0.62723239  0.52635876  0.39553225     0.16000
C2601       C  0.92639732  0.82094423  0.39170065    -0.11200
C2602       C  0.90533252  0.81902344  0.40570858     0.15300
C2603       C  0.87226939  0.79244758  0.40610112     0.02200
C2604       C  0.86098948  0.76851533  0.39242411    -0.15600
C2605       C  0.88217529  0.77011439  0.37845819    -0.10400
C2606       C  0.91517843  0.79702290  0.37806402     0.08900
C2607       C  0.91833322  0.84607074  0.41915295     0.10000
S2608       S  0.84346074  0.78746247  0.42374758    -0.24700
H2609       H  0.83570802  0.74788789  0.39300949     0.20200
S2610       S  0.94368189  0.80329604  0.36011037    -0.30400
H2611       H  0.95164710  0.84167362  0.39121611     0.10500
C2612       C  0.94011017  0.84799254  0.43290517     0.03700
C2613       C  0.95347184  0.87515521  0.44472103    -0.12700
C2614       C  0.94569331  0.90063006  0.44298586    -0.08400
C2615       C  0.92399980  0.89865304  0.42900965     0.07200
C2616       C  0.91021203  0.87119231  0.41746091    -0.13500
S2617       S  0.95052911  0.81561670  0.43548660    -0.30400
H2618       H  0.97000627  0.87654450  0.45540609     0.11400
S2619       S  0.91471085  0.93123753  0.42435534    -0.27500
H2620       H  0.89391737  0.86993199  0.40664718     0.08700
H2621       H  0.91924014  0.79194988  0.34655565     0.27100
H2622       H  0.97215220  0.82976062  0.45023388     0.21900
H2623       H  0.94727352  0.95733193  0.42754248     0.27200
H2624       H  0.86730665  0.80325744  0.43737211     0.16000
C2625       C  0.93088152  0.63247153  0.40392106    -0.11200
C2626       C  0.91756541  0.59814471  0.40574611     0.15300
C2627       C  0.89152441  0.57642512  0.39422505     0.02200
C2628       C  0.87890957  0.58946199  0.38149435    -0.15600
C2629       C  0.89241356  0.62393619  0.37946009    -0.10400
C2630       C  0.91919251  0.64560507  0.39075657     0.08900
C2631       C  0.93104961  0.58577971  0.41993994     0.10000
S2632       S  0.87354763  0.53191612  0.39496695    -0.24700
H2633       H  0.85857762  0.57243304  0.37293418     0.20200
S2634       S  0.93855052  0.69013927  0.38981477    -0.30400
H2635       H  0.95071525  0.64922223  0.41283260     0.10500
C2636       C  0.96420251  0.59252140  0.41937520     0.03700
C2637       C  0.97555451  0.57920567  0.43264781    -0.12700
C2638       C  0.95453620  0.55924463  0.44651574    -0.08400
C2639       C  0.92183893  0.55396067  0.44757780     0.07200
C2640       C  0.91038819  0.56701800  0.43420455    -0.13500
S2641       S  0.99158899  0.61632935  0.40117763    -0.30400
H2642       H  0.00059922  0.58322227  0.43177846     0.11400
S2643       S  0.89398413  0.53180377  0.46586362    -0.27500
H2644       H  0.88516905  0.56261207  0.43492097     0.08700
H2645       H  0.95160286  0.69178182  0.37250054     0.27100
H2646       H  0.02082304  0.61908023  0.40850466     0.21900
H2647       H  0.91901570  0.54265134  0.47907496     0.27200
H2648       H  0.90284846  0.53220668  0.40011727     0.16000
C2649       C  0.59390678  0.63091627  0.91608477    -0.11200
C2650       C  0.58501367  0.65558476  0.91694547     0.15300
C2651       C  0.56208430  0.65335311  0.93010834     0.02200
C2652       C  0.54820718  0.62632455  0.94190654    -0.15600
C2653       C  0.55699869  0.60148353  0.94109868    -0.10400
C2654       C  0.57999232  0.60380503  0.92782843     0.08900
C2655       C  0.59797981  0.68180493  0.90302568     0.10000
S2656       S  0.54960189  0.68419504  0.93257133    -0.24700
H2657       H  0.53069020  0.62494828  0.95198147     0.20200
S2658       S  0.59096323  0.57210287  0.92423054    -0.30400
H2659       H  0.61095856  0.63221573  0.90573127     0.10500
C2660       C  0.63184372  0.70627609  0.90227555     0.03700
C2661       C  0.64279091  0.73076596  0.88888807    -0.12700
C2662       C  0.62058222  0.73125250  0.87615394    -0.08400
C2663       C  0.58684084  0.70576173  0.87659117     0.07200
C2664       C  0.57591691  0.68165815  0.89009960    -0.13500
S2665       S  0.66081176  0.70731074  0.91887833    -0.30400
H2666       H  0.66857520  0.75026756  0.88871903     0.11400
S2667       S  0.55671610  0.70165194  0.85997921    -0.27500
H2668       H  0.55002968  0.66231288  0.89043059     0.08700
H2669       H  0.55827444  0.54548242  0.92621660     0.27100
H2670       H  0.68966922  0.73344675  0.91112007     0.21900
H2671       H  0.57917086  0.71122229  0.84550679     0.27200
H2672       H  0.57963053  0.71119695  0.92649012     0.16000
C2673       C  0.81863537  0.93736814  0.88912842    -0.11200
C2674       C  0.82026456  0.91679910  0.90241453     0.15300
C2675       C  0.79565042  0.88292498  0.90296107     0.02200
C2676       C  0.77076292  0.87008409  0.88985445    -0.15600
C2677       C  0.76899386  0.89048976  0.87647299    -0.10400
C2678       C  0.79341292  0.92459086  0.87610268     0.08900
C2679       C  0.84823649  0.93092270  0.91531627     0.10000
S2680       S  0.79427972  0.85490364  0.92020499    -0.25700
H2681       H  0.75191390  0.84405284  0.89049033     0.20200
S2682       S  0.79468736  0.95273857  0.85900771    -0.30400
H2683       H  0.83757534  0.96337938  0.88867681     0.10500
C2684       C  0.87331393  0.92230385  0.91463932     0.03700
C2685       C  0.89753757  0.93358563  0.92819156    -0.12700
C2686       C  0.89755441  0.95378414  0.94227044    -0.08400
C2687       C  0.87267193  0.96287403  0.94267895     0.07200
C2688       C  0.84853012  0.95162537  0.92910884    -0.13500
S2689       S  0.87486186  0.89756385  0.89629536    -0.30400
H2690       H  0.91701065  0.92722856  0.92762829     0.11400
S2691       S  0.86926468  0.98721694  0.96056375    -0.27500
H2692       H  0.82907989  0.95804312  0.92965309     0.08700
H2693       H  0.78439121  0.92944029  0.84491116     0.27100
H2694       H  0.90309145  0.89650239  0.90225021     0.21900
H2695       H  0.87931539  0.97327029  0.97429537     0.27200
H2696       H  0.80827583  0.87872999  0.93397927     0.16000
C2697       C  0.53519327  0.90493342  0.91761253    -0.11200
C2698       C  0.56735797  0.90999096  0.91981486     0.15300
C2699       C  0.58700177  0.92908954  0.93444940     0.02200
C2700       C  0.57442925  0.94354625  0.94624879    -0.15600
C2701       C  0.54240760  0.93897527  0.94391398    -0.10400
C2702       C  0.52262399  0.91946326  0.92934267     0.08900
C2703       C  0.58096155  0.89815372  0.90554222     0.10000
S2704       S  0.62837159  0.93626759  0.93861566    -0.24700
H2705       H  0.58973349  0.95840521  0.95738998     0.20200
S2706       S  0.48236086  0.91431347  0.92405953    -0.30400
H2707       H  0.52036890  0.89081017  0.90616167     0.10500
C2708       C  0.57038618  0.86425854  0.90334364     0.03700
C2709       C  0.58419804  0.85443591  0.88952787    -0.12700
C2710       C  0.60824919  0.87786236  0.87776243    -0.08400
C2711       C  0.61759385  0.91173514  0.87965782     0.07200
C2712       C  0.60427274  0.92148955  0.89364817    -0.13500
S2713       S  0.54027548  0.83375373  0.91854629    -0.30400
H2714       H  0.57687059  0.82848451  0.88820811     0.11400
S2715       S  0.64505202  0.94358862  0.86428599    -0.27500
H2716       H  0.61167508  0.94747347  0.89511008     0.08700
H2717       H  0.49126221  0.94736136  0.92795672     0.27100
H2718       H  0.54025016  0.80595428  0.91105152     0.21900
H2719       H  0.63174620  0.92346363  0.84892676     0.27200
H2720       H  0.62343022  0.90661730  0.93076808     0.16000
C2721       C  0.50538232  0.72918306  0.78969992    -0.11200
C2722       C  0.99681348  0.74795251  0.77839201     0.15300
C2723       C  0.52000291  0.78187670  0.77559550     0.02200
C2724       C  0.55115906  0.79626066  0.78410549    -0.15600
C2725       C  0.55968462  0.77740741  0.79536680    -0.10400
C2726       C  0.53668837  0.74330185  0.79782524     0.08900
C2727       C  0.96329975  0.73146409  0.77006220     0.10000
S2728       S  0.51147902  0.80797489  0.76117392    -0.24700
H2729       H  0.56858667  0.82247521  0.78222813     0.20200
S2730       S  0.54599525  0.71627154  0.81090343    -0.30400
H2731       H  0.98765532  0.70299170  0.79168285     0.10500
C2732       C  0.95493125  0.70746477  0.75648609     0.03700
C2733       C  0.92326408  0.69263663  0.74876333    -0.12700
C2734       C  0.89987045  0.70199156  0.75374864    -0.08400
C2735       C  0.90790213  0.72538868  0.76771926     0.07200
C2736       C  0.93956041  0.73982201  0.77577751    -0.13500
S2737       S  0.98509330  0.69683526  0.74829380    -0.30400
H2738       H  0.91691486  0.67411872  0.73839200     0.11400
S2739       S  0.87898271  0.73856448  0.77455959    -0.27500
H2740       H  0.94620487  0.75815564  0.78632099     0.08700
H2741       H  0.58038248  0.73345063  0.80748006     0.27100
H2742       H  0.96588168  0.67647758  0.73396047     0.21900
H2743       H  0.89921666  0.76121417  0.78786205     0.27200
H2744       H  0.99084150  0.78263796  0.74881724     0.16000
C2745       C  0.79756286  0.56386637  0.77694241    -0.11200
C2746       C  0.76634738  0.53917906  0.77068726     0.15300
C2747       C  0.75111920  0.54676143  0.75645010     0.02200
C2748       C  0.76793430  0.57808538  0.74837735    -0.15600
C2749       C  0.80021762  0.60222278  0.75373604    -0.10400
C2750       C  0.81473357  0.59504620  0.76857090     0.08900
C2751       C  0.74988267  0.50627234  0.77971257     0.10000
S2752       S  0.71048119  0.51759775  0.74776759    -0.24700
H2753       H  0.75563532  0.58354169  0.73764360     0.20200
S2754       S  0.85552076  0.62372547  0.77699814    -0.30400
H2755       H  0.80907976  0.55842031  0.78812927     0.10500
C2756       C  0.75076567  0.97816036  0.77193434     0.03700
C2757       C  0.73424796  0.94756454  0.78107525    -0.12700
C2758       C  0.71436805  0.94333358  0.79623766    -0.08400
C2759       C  0.71010380  0.97016913  0.80177245     0.07200
C2760       C  0.72684551  0.00063314  0.79277387    -0.13500
S2761       S  0.76452197  0.47999658  0.74950760    -0.30400
H2762       H  0.73757534  0.92719071  0.77672271     0.11400
S2763       S  0.68271820  0.96698815  0.81978020    -0.27500
H2764       H  0.73856946  0.52595956  0.80308224     0.08700
H2765       H  0.86965527  0.63240006  0.75981162     0.27100
H2766       H  0.77057353  0.95035355  0.75232325     0.21900
H2767       H  0.65850335  0.93389743  0.81603720     0.27200
H2768       H  0.70818528  0.98892492  0.75031899     0.16000
C2769       C  0.75940256  0.70327625  0.77326526    -0.11200
C2770       C  0.76848025  0.73562300  0.76775042     0.15300
C2771       C  0.79378153  0.75154158  0.75479586     0.02200
C2772       C  0.80930353  0.73492112  0.74767573    -0.15600
C2773       C  0.79947673  0.70206128  0.75258047    -0.10400
C2774       C  0.77456967  0.68628041  0.76579011     0.08900
C2775       C  0.75303280  0.75310054  0.77673613     0.10000
S2776       S  0.80750731  0.79303443  0.74676975    -0.24700
H2777       H  0.82870148  0.74753194  0.73775956     0.20200
S2778       S  0.76087343  0.64410325  0.77256751    -0.30400
H2779       H  0.74029412  0.69138045  0.78341245     0.10500
C2780       C  0.72305758  0.75046723  0.77057074     0.03700
C2781       C  0.70942965  0.76743669  0.77974264    -0.12700
C2782       C  0.72518791  0.78691073  0.79502161    -0.08400
C2783       C  0.75594268  0.79033183  0.80066677     0.07200
C2784       C  0.76920460  0.77317873  0.79162402    -0.13500
S2785       S  0.70233763  0.72553295  0.75102426    -0.30400
H2786       H  0.68594715  0.76470558  0.77535425     0.11400
S2787       S  0.78015689  0.81695547  0.81898586    -0.27500
H2788       H  0.79258437  0.77573661  0.79613526     0.08700
H2789       H  0.73616701  0.64089859  0.78467314     0.27100
H2790       H  0.67680010  0.73343615  0.75020683     0.21900
H2791       H  0.77180071  0.84165714  0.81552576     0.27200
H2792       H  0.77690717  0.79197234  0.74870147     0.16000
C2793       C  0.95233615  0.75571066  0.70670765    -0.11200
C2794       C  0.96115259  0.73699003  0.69557539     0.15300
C2795       C  0.93816036  0.70292683  0.69287275     0.02200
C2796       C  0.90750438  0.68824676  0.70178757    -0.15600
C2797       C  0.89914206  0.70678372  0.71335967    -0.10400
C2798       C  0.92144934  0.74125256  0.71527767     0.08900
C2799       C  0.99479980  0.75359561  0.68742242     0.10000
S2800       S  0.94660386  0.67675263  0.67849380    -0.24700
H2801       H  0.89040288  0.66192400  0.70005411     0.20200
S2802       S  0.91213750  0.76839684  0.72823521    -0.30400
H2803       H  0.96974364  0.78190639  0.70872684     0.10500
C2804       C  0.00449892  0.77946556  0.67480138     0.03700
C2805       C  0.53649394  0.79469634  0.66776644    -0.12700
C2806       C  0.55939437  0.78468035  0.67272041    -0.08400
C2807       C  0.55010581  0.75950511  0.68583477     0.07200
C2808       C  0.51801928  0.74422029  0.69312024    -0.13500
S2809       S  0.97545543  0.79208415  0.66720631    -0.30400
H2810       H  0.54336248  0.81369789  0.65759599     0.11400
S2811       S  0.57822398  0.74650520  0.69428145    -0.27500
H2812       H  0.51102260  0.72498117  0.70317967     0.08700
H2813       H  0.87749287  0.74873042  0.72698311     0.27100
H2814       H  0.99733010  0.81753511  0.65558047     0.21900
H2815       H  0.60669705  0.77823013  0.69339774     0.27200
H2816       H  0.96709515  0.70182044  0.66631143     0.16000
C2817       C  0.72490261  0.98614043  0.69115377    -0.11200
C2818       C  0.75677676  0.50808415  0.68727715     0.15300
C2819       C  0.77353565  0.99957482  0.67302489     0.02200
C2820       C  0.75701309  0.96733757  0.66603603    -0.15600
C2821       C  0.72416038  0.94448252  0.67100806    -0.10400
C2822       C  0.70812142  0.95402962  0.68392245     0.08900
C2823       C  0.77348284  0.54113895  0.69603329     0.10000
S2824       S  0.81323675  0.52869487  0.66506202    -0.24700
H2825       H  0.76950090  0.96050677  0.65602256     0.20200
S2826       S  0.66687041  0.92622022  0.69223853    -0.30400
H2827       H  0.71269441  0.99312813  0.70126224     0.10500
C2828       C  0.76186633  0.56375990  0.69382308     0.03700
C2829       C  0.77873941  0.59486723  0.70229223    -0.12700
C2830       C  0.80642147  0.60342096  0.71330897    -0.08400
C2831       C  0.81871954  0.58117766  0.71493568     0.07200
C2832       C  0.80189530  0.55020762  0.70649637    -0.13500
S2833       S  0.72564552  0.55312016  0.68020378    -0.30400
H2834       H  0.76962193  0.61209821  0.70092056     0.11400
S2835       S  0.85580298  0.59073409  0.72737264    -0.27500
H2836       H  0.81108153  0.53301262  0.70802667     0.08700
H2837       H  0.67013523  0.89772631  0.69175503     0.27100
H2838       H  0.72420115  0.58212696  0.68366204     0.21900
H2839       H  0.87063624  0.62529602  0.72591950     0.27200
H2840       H  0.80996066  0.55701608  0.66701034     0.16000
C2841       C  0.74787536  0.70018189  0.70473793    -0.11200
C2842       C  0.76730478  0.72789277  0.69389430     0.15300
C2843       C  0.80143806  0.73878357  0.69162391     0.02200
C2844       C  0.81561601  0.72268412  0.70090875    -0.15600
C2845       C  0.79636695  0.69572506  0.71230027    -0.10400
C2846       C  0.76178066  0.68353696  0.71361306     0.08900
C2847       C  0.75121532  0.74527480  0.68564808     0.10000
S2848       S  0.82821718  0.77324889  0.67733736    -0.24700
H2849       H  0.84204056  0.73184711  0.69963792     0.20200
S2850       S  0.73374711  0.64691307  0.72619749    -0.30400
H2851       H  0.72158231  0.69149208  0.70632093     0.10500
C2852       C  0.72627819  0.72974030  0.67245849     0.03700
C2853       C  0.71058884  0.74644978  0.66557273    -0.12700
C2854       C  0.71955348  0.77860262  0.67140888    -0.08400
C2855       C  0.74432106  0.79396520  0.68480437     0.07200
C2856       C  0.75995538  0.77720349  0.69170724    -0.13500
S2857       S  0.71538814  0.68919767  0.66381975    -0.30400
H2858       H  0.69193469  0.73482098  0.65515387     0.11400
S2859       S  0.75617410  0.83418459  0.69412752    -0.27500
H2860       H  0.77869707  0.78887080  0.70210149     0.08700
H2861       H  0.75422778  0.63278613  0.72693477     0.27100
H2862       H  0.69202204  0.68693586  0.65099628     0.21900
H2863       H  0.72425047  0.83050370  0.69297566     0.27200
H2864       H  0.80346366  0.76902666  0.66496215     0.16000
C2865       C  0.54676676  0.62532165  0.55703417    -0.11200
C2866       C  0.57807252  0.65322255  0.55431562     0.15300
C2867       C  0.59610192  0.65580687  0.53849338     0.02200
C2868       C  0.58225744  0.63035153  0.52569297    -0.15600
C2869       C  0.55109776  0.60210172  0.52856175    -0.10400
C2870       C  0.53286648  0.60001166  0.54425696     0.08900
C2871       C  0.59024749  0.67995213  0.56780511     0.10000
S2872       S  0.63684358  0.69065779  0.53393458    -0.24700
H2873       H  0.59636759  0.63208803  0.51371997     0.20200
S2874       S  0.99250327  0.56633661  0.54882962    -0.30400
H2875       H  0.53267617  0.62371397  0.56899740     0.10500
C2876       C  0.59020129  0.70962317  0.56425356     0.03700
C2877       C  0.60306273  0.73488406  0.57713426    -0.12700
C2878       C  0.61556751  0.73096889  0.59363605    -0.08400
C2879       C  0.61458618  0.70067200  0.59737873     0.07200
C2880       C  0.60160711  0.67536533  0.58446690    -0.13500
S2881       S  0.57319513  0.71507177  0.54347001    -0.30400
H2882       H  0.60328231  0.75786677  0.57436780     0.11400
S2883       S  0.63095382  0.69333382  0.61779477    -0.27500
H2884       H  0.60123637  0.65226793  0.58718674     0.08700
H2885       H  0.98209186  0.56229083  0.53074811     0.27100
H2886       H  0.57788958  0.74674603  0.54737167     0.21900
H2887       H  0.65918973  0.72524208  0.61848713     0.27200
H2888       H  0.64657625  0.69904825  0.55197389     0.16000
C2889       C  0.84310376  0.91373620  0.53710707    -0.11200
C2890       C  0.84883773  0.92872658  0.55411648     0.15300
C2891       C  0.88056239  0.95541924  0.55837474     0.02200
C2892       C  0.90584828  0.96651534  0.54556479    -0.15600
C2893       C  0.90025374  0.95179374  0.52840957    -0.10400
C2894       C  0.86849614  0.92466080  0.52430110     0.08900
C2895       C  0.82157184  0.91509254  0.56735581     0.10000
S2896       S  0.89032668  0.97643214  0.57983720    -0.24700
H2897       H  0.93005249  0.98729085  0.54897478     0.20200
S2898       S  0.85924672  0.90160880  0.50355401    -0.30400
H2899       H  0.81884016  0.89278548  0.53397848     0.10500
C2900       C  0.79414669  0.91994631  0.56543120     0.03700
C2901       C  0.76831705  0.90578819  0.57801020    -0.12700
C2902       C  0.76941578  0.88693147  0.59250055    -0.08400
C2903       C  0.79695760  0.88202837  0.59433330     0.07200
C2904       C  0.82290379  0.89647885  0.58185372    -0.13500
S2905       S  0.79249024  0.94485363  0.54721715    -0.30400
H2906       H  0.74721996  0.90957996  0.57664948     0.11400
S2907       S  0.79958055  0.85610691  0.61156143    -0.27500
H2908       H  0.84392000  0.89251813  0.58316392     0.08700
H2909       H  0.88955712  0.90161405  0.50304881     0.27100
H2910       H  0.76089121  0.94032814  0.55124968     0.21900
H2911       H  0.76565192  0.83186514  0.61100916     0.27200
H2912       H  0.85843890  0.97166375  0.58319425     0.16000
C2913       C  0.54360973  0.91684691  0.55505380    -0.11200
C2914       C  0.57391551  0.91824499  0.55182408     0.15300
C2915       C  0.59009436  0.93000406  0.53512344     0.02200
C2916       C  0.57610835  0.94137267  0.52221967    -0.15600
C2917       C  0.54645805  0.94142050  0.52579348    -0.10400
C2918       C  0.52942766  0.92773032  0.54216038     0.08900
C2919       C  0.58681332  0.90547091  0.56589301     0.10000
S2920       S  0.62870457  0.93159873  0.52960506    -0.24700
H2921       H  0.58918439  0.95158247  0.50969194     0.20200
S2922       S  0.99004206  0.92374325  0.54794604    -0.30400
H2923       H  0.53071031  0.90676770  0.56765052     0.10500
C2924       C  0.60378608  0.92479809  0.58103398     0.03700
C2925       C  0.61519644  0.91134338  0.59423388    -0.12700
C2926       C  0.60975643  0.87896257  0.59249212    -0.08400
C2927       C  0.59120826  0.85916621  0.57769624     0.07200
C2928       C  0.58035528  0.87280802  0.56445081    -0.13500
S2929       S  0.61197149  0.96693003  0.58313228    -0.30400
H2930       H  0.62947056  0.92643563  0.60554698     0.11400
S2931       S  0.57980702  0.81613730  0.57514929    -0.27500
H2932       H  0.56639906  0.85776052  0.55303462     0.08700
H2933       H  0.97766291  0.91669515  0.53022482     0.27100
H2934       H  0.62810705  0.97363487  0.59992461     0.21900
H2935       H  0.57689464  0.80911124  0.59370077     0.27200
H2936       H  0.64093635  0.93566764  0.54728381     0.16000
loop_ 
_geom_bond_atom_site_label_1 
_geom_bond_atom_site_label_2 
_geom_bond_distance 
_geom_bond_site_symmetry_2 
_ccdc_geom_bond_type 
Zn1           O5   1.960       .  S
Zn1           O6   2.029       .  S
Zn1          O10   2.021       .  S
Zn1          O17   2.010       .  S
Zn2           O5   1.933       .  S
Zn2           O7   1.963       .  S
Zn2           O9   1.968       .  S
Zn2          O13   1.976       .  S
Zn3           O5   1.959       .  S
Zn3           O8   2.011       .  S
Zn3          O11   2.026       .  S
Zn3          O14   2.017       .  S
Zn4           O5   1.957       .  S
Zn4          O12   2.015       .  S
Zn4          O15   2.025       .  S
Zn4          O16   2.016       .  S
O6           C18   1.273       .  A
O7           C19   1.266       .  A
O8           C20   1.274       .  A
O9           C18   1.268       .  A
O10          C20   1.275       .  A
O11          C19   1.273       .  A
O12          C21   1.275       .  A
O13          C22   1.268       .  A
O14          C21   1.274       .  A
O15          C22   1.273       .  A
O16          C23   1.274       .  A
O17          C23   1.275       .  A
C18         C676   1.473       .  S
C19         C724   1.470       .  S
C20         C604   1.480       .  S
C21         C619   1.479       .  S
C22         C700   1.471       .  S
C23         C652   1.477       .  S
C24          H25   1.112       .  S
C24          C30   1.530       .  S
C24          C29   1.530       .  S
C24          C28   1.533       .  S
C26          H27   1.109       .  S
C26          C32   1.548       .  S
C26          C31   1.548       .  S
C26          C33   1.547       .  S
C28          C31   1.378       .  D
C28         C628   1.484       .  S
C29          C32   1.377       .  D
C29         C595   1.487       .  S
C30          C33   1.375       .  D
C30         C643   1.483       .  S
C31         C547   1.501       .  S
C32         C532   1.495       .  S
C33         C571   1.496       .  S
Zn34         O38   1.956       .  S
Zn34         O39   2.017       .  S
Zn34         O43   2.009       .  S
Zn34         O50   2.000       .  S
Zn35         O38   1.960       .  S
Zn35         O40   2.012       .  S
Zn35         O42   2.013       .  S
Zn35         O46   1.997       .  S
Zn36         O38   1.959       .  S
Zn36         O41   2.013       .  S
Zn36         O44   2.010       .  S
Zn36         O47   2.013       .  S
Zn37         O38   1.981       .  S
Zn37         O45   2.064       .  S
Zn37         O48   2.059       .  S
Zn37         O49   2.068       .  S
O39          C51   1.272       .  A
O40          C52   1.272       .  A
O41          C53   1.272       .  A
O42          C51   1.272       .  A
O43          C53   1.273       .  A
O44          C52   1.272       .  A
O45          C54   1.279       .  A
O46          C55   1.272       .  A
O47          C54   1.274       .  A
O48          C55   1.279       .  A
O49          C56   1.280       .  A
O50          C56   1.272       .  A
C51         C460   1.483       .  S
C52         C508   1.484       .  S
C53         C475   1.479       .  S
C54         C556   1.489       .  S
C55         C523   1.477       .  S
C56         C580   1.489       .  S
Zn57         O61   1.979       .  S
Zn57         O62   2.056       .  S
Zn57         O66   2.064       .  S
Zn57         O73   2.068       .  S
Zn58         O61   1.962       .  S
Zn58         O63   2.011       .  S
Zn58         O65   2.004       .  S
Zn58         O69   2.018       .  S
Zn59         O61   1.955       .  S
Zn59         O64   2.007       .  S
Zn59         O67   2.013       .  S
Zn59         O70   2.019       .  S
Zn60         O61   1.951       .  S
Zn60         O68   2.011       .  S
Zn60         O71   1.993       .  S
Zn60         O72   1.993       .  S
O62          C74   1.279       .  A
O63          C75   1.272       .  A
O64          C76   1.274       .  A
O65          C74   1.273       .  A
O66          C76   1.280       .  A
O67          C75   1.271       .  A
O68          C77   1.272       .  A
O69          C78   1.273       .  A
O70          C77   1.272       .  A
O71          C78   1.269       .  A
O72          C79   1.272       .  A
O73          C79   1.280       .  A
C74         C307   1.485       .  S
C75         C427   1.487       .  S
C76         C331   1.485       .  S
C77         C403   1.481       .  S
C78         C379   1.479       .  S
C79         C355   1.487       .  S
C80          H81   1.110       .  S
C80          C86   1.539       .  S
C80          C85   1.541       .  S
C80          C84   1.538       .  S
C82          H83   1.109       .  S
C82          C88   1.549       .  S
C82          C87   1.544       .  S
C82          C89   1.551       .  S
C84          C87   1.372       .  D
C84         C244   1.490       .  S
C85          C88   1.380       .  D
C85         C283   1.495       .  S
C86          C89   1.378       .  D
C86         C259   1.497       .  S
C87         C340   1.496       .  S
C88         C364   1.503       .  S
C89         C316   1.500       .  S
Zn90         O94   1.959       .  S
Zn90         O95   2.017       .  S
Zn90         O99   2.032       .  S
Zn90        O106   2.032       .  S
Zn91         O94   1.965       .  S
Zn91         O96   2.028       .  S
Zn91         O98   2.029       .  S
Zn91        O102   2.012       .  S
Zn92         O94   1.942       .  S
Zn92         O97   1.984       .  S
Zn92        O100   1.975       .  S
Zn92        O103   1.970       .  S
Zn93         O94   1.967       .  S
Zn93        O101   2.036       .  S
Zn93        O104   2.042       .  S
Zn93        O105   2.040       .  S
O95         C107   1.274       .  A
O96         C108   1.272       .  A
O97         C109   1.268       .  A
O98         C107   1.276       .  A
O99         C109   1.275       .  A
O100        C108   1.268       .  A
O101        C110   1.274       .  A
O102        C111   1.274       .  A
O103        C110   1.267       .  A
O104        C111   1.278       .  A
O105        C112   1.278       .  A
O106        C112   1.276       .  A
C107        C268   1.485       .  S
C108        C211   1.476       .  S
C109        C172   1.480       .  S
C110        C187   1.470       .  S
C111        C235   1.483       .  S
C112        C292   1.491       .  S
Zn113       O117   1.928   1_444  S
Zn113       O122   1.983       .  S
Zn113      O1586   1.969   1_455  S
Zn113      O2331   1.975   1_445  S
Zn114      O1585   1.963   1_545  S
Zn114       O121   2.034       .  S
Zn114      O1587   2.016       .  S
Zn114       O859   2.017   1_545  S
Zn115       O117   1.962   1_445  S
Zn115       O120   2.033       .  S
Zn115       O123   2.012       .  S
Zn115       O860   2.016   1_545  S
Zn116      O2319   1.960       .  S
Zn116       O127   2.011       .  S
Zn116       O128   2.035       .  S
Zn116      O1592   2.002       .  S
O117      Zn1582   1.964   1_565  S
O117      Zn2318   1.962       .  S
O118      Zn1581   1.964       .  S
O118        C130   1.268       .  A
O119      Zn1582   2.014   1_455  S
O119        C131   1.274       .  A
O120        C132   1.274   1_556  A
O121        C130   1.275   1_556  A
O122        C132   1.269       .  A
O123        C131   1.273       .  A
O124      Zn1584   2.000   1_455  S
O124        C133   1.272       .  A
O125       Zn848   2.015       .  S
O125        C134   1.273       .  A
O126       Zn849   2.015       .  S
O126        C133   1.274       .  A
O127        C134   1.274       .  A
O128        C135   1.274   1_556  A
O129      Zn2315   1.977       .  S
O129        C135   1.269       .  A
C130        C220   1.472       .  S
C131        C451   1.482       .  S
C132        C163   1.473       .  S
C133        C499   1.474       .  S
C134        C484   1.477       .  S
C135        C196   1.484       .  S
Zn136       O874   1.964       .  S
Zn136       O141   2.040       .  S
Zn136       O879   2.023       .  S
Zn136      O1620   2.014   1_455  S
Zn137       O140   1.926       .  S
Zn137       O142   1.970       .  S
Zn137       O878   1.962   1_545  S
Zn137      O2350   1.973   1_445  S
Zn138       O140   1.955       .  S
Zn138       O143   2.000       .  S
Zn138       O146   2.026       .  S
Zn138      O1617   2.001   1_455  S
Zn139      O2342   1.964       .  S
Zn139       O150   2.030       .  S
Zn139       O151   2.019       .  S
Zn139       O881   2.021       .  S
O140       Zn870   1.964   1_545  S
O140      Zn2341   1.964   1_445  S
O141        C153   1.275       .  A
O142        C154   1.267       .  A
O143        C155   1.272       .  A
O144       Zn871   1.958       .  S
O144        C153   1.266       .  A
O145       Zn870   2.023   1_545  S
O145        C155   1.275       .  A
O146        C154   1.273       .  A
O147       Zn873   2.019   1_545  S
O147        C156   1.274       .  A
O148      Zn2339   1.972       .  S
O148        C157   1.268       .  A
O149      Zn1606   2.002       .  S
O149        C156   1.272       .  A
O150        C157   1.274       .  A
O151        C158   1.274       .  A
O152      Zn1604   2.014       .  S
O152        C158   1.274       .  A
C153        C715   1.471       .  S
C154        C667   1.471       .  S
C155        C388   1.475       .  S
C156        C436   1.477       .  S
C157        C691   1.477       .  S
C158        C412   1.481       .  S
C159        C160   1.400       .  A
C159        C164   1.396       .  A
C159        H169   1.083       .  S
C160        C165   1.475       .  S
C160        C161   1.412       .  A
C161        C162   1.401       .  A
C161        S166   1.804       .  S
C162        C163   1.403       .  A
C162        H167   1.083       .  S
C163        C164   1.414       .  A
C164        S902   1.805   1_545  S
C165        C170   1.408       .  A
C165        C174   1.398       .  A
S166        H182   1.405       .  S
S168        C898   1.805       .  S
S168        H179   1.407       .  S
C170        C171   1.402       .  A
C170        S175   1.806       .  S
C171        C172   1.405       .  A
C171        H176   1.082       .  S
C172        C173   1.419       .  A
C173        C174   1.397       .  A
C173        S177   1.804       .  S
C174        H178   1.084       .  S
S175        H180   1.407       .  S
S177        H181   1.407       .  S
C183        C184   1.399       .  A
C183        C188   1.395       .  A
C183        H193   1.084       .  S
C184        C189   1.474       .  S
C184        C185   1.413       .  A
C185        C186   1.400       .  A
C185        S190   1.805       .  S
C186        C187   1.402       .  A
C186        H191   1.084       .  S
C187        C188   1.415       .  A
C188        S192   1.806       .  S
C189        C194   1.405       .  A
C189        C198   1.402       .  A
S190        H206   1.405       .  S
S192        H203   1.407       .  S
C194        C195   1.397       .  A
C194        S199   1.808       .  S
C195        C196   1.409       .  A
C195        H200   1.083       .  S
C196        C197   1.416       .  A
C197        C198   1.401       .  A
C197        S201   1.802       .  S
C198        H202   1.084       .  S
S199        H204   1.407       .  S
S201        H205   1.407       .  S
C207        C208   1.402       .  A
C207        C212   1.399       .  A
C207        H217   1.084       .  S
C208        C213   1.471       .  S
C208        C209   1.406       .  A
C209        C210   1.394       .  A
C209        S214   1.804       .  S
C210        C211   1.407       .  A
C210        H215   1.084       .  S
C211        C212   1.414       .  A
C212        S216   1.802       .  S
C213        C218   1.404       .  A
C213        C222   1.402       .  A
S214        H230   1.406       .  S
S216        H227   1.407       .  S
C218        C219   1.398       .  A
C218        S223   1.807       .  S
C219        C220   1.407       .  A
C219        H224   1.083       .  S
C220        C221   1.412       .  A
C221        C222   1.398       .  A
C221        S225   1.802       .  S
C222        H226   1.084       .  S
S223       H1696   1.407       .  S
S225        H229   1.407       .  S
H228       S1691   1.407   1_455  S
C231        C236   1.400       .  A
C231       C1700   1.401       .  A
C231       H1709   1.083       .  S
C232        C237   1.484       .  S
C232       C1699   1.401       .  A
C232       C1701   1.414   1_455  A
C233        C234   1.402       .  A
C233       C1700   1.414       .  A
C233        S238   1.802       .  S
C234        C235   1.403       .  A
C234        H239   1.083       .  S
C235        C236   1.419       .  A
C236        S240   1.804       .  S
C237        C242   1.409       .  A
C237        C246   1.403       .  A
S238       H1722   1.405       .  S
S240        H251   1.407       .  S
H241       C1699   1.084       .  S
C242        C243   1.403       .  A
C242        S247   1.805       .  S
C243        C244   1.405       .  A
C243        H248   1.083       .  S
C244        C245   1.412       .  A
C245        C246   1.400       .  A
C245        S249   1.796       .  S
C246        H250   1.084       .  S
S247        H252   1.407       .  S
S249        H253   1.404       .  S
H254       S1706   1.406   1_455  S
C255        C256   1.402       .  A
C255        C260   1.403       .  A
C255        H265   1.083       .  S
C256        C261   1.482       .  S
C256        C257   1.410       .  A
C257        C258   1.398       .  A
C257        S262   1.804       .  S
C258        C259   1.407       .  A
C258        H263   1.083       .  S
C259        C260   1.414       .  A
C260        S264   1.802       .  S
C261       C1000   1.410       .  A
C261       C1004   1.400       .  A
S262       H1012   1.405       .  S
S264        H275   1.406       .  S
C266        C267   1.405       .  A
C266        C995   1.411   1_545  A
C266        S271   1.807       .  S
C267        C268   1.406       .  A
C267        H272   1.083       .  S
C268        C269   1.418       .  A
C269        C270   1.399       .  A
C269        S273   1.803       .  S
C270        C995   1.401   1_545  A
C270       H1008   1.084   1_545  S
S271        H276   1.407       .  S
S273        H277   1.407       .  S
H274       C1004   1.084       .  S
H278        S996   1.406   1_545  S
C279        C280   1.402       .  A
C279        C284   1.399       .  A
C279        H289   1.084       .  S
C280        C285   1.490       .  S
C280        C281   1.415       .  A
C281        C282   1.404       .  A
C281        S286   1.803       .  S
C282        C283   1.404       .  A
C282        H287   1.084       .  S
C283        C284   1.419       .  A
C284        S288   1.804       .  S
C285        C290   1.410       .  A
C285        C294   1.404       .  A
S286        H302   1.405       .  S
S288        H299   1.400       .  S
C290        C291   1.405       .  A
C290        S295   1.808       .  S
C291        C292   1.406       .  A
C291        H296   1.082       .  S
C292        C293   1.417       .  A
C293        C294   1.408       .  A
C293        S297   1.807       .  S
C294        H298   1.082       .  S
S295        H300   1.407       .  S
S297        H301   1.407       .  S
C303        C308   1.402       .  A
C303       C1038   1.401   1_545  A
C303       H1047   1.084   1_545  S
C304        C309   1.486       .  S
C304       C1037   1.401       .  A
C304       C1039   1.413       .  A
C305        C306   1.401       .  A
C305       C1038   1.413   1_545  A
C305        S310   1.799       .  S
C306        C307   1.403       .  A
C306        H311   1.084       .  S
C307        C308   1.419       .  A
C308        S312   1.804       .  S
C309        C314   1.408       .  A
C309        C318   1.403       .  A
S310       H1060   1.405   1_545  S
S312        H323   1.407       .  S
H313       C1037   1.084       .  S
C314        C315   1.404       .  A
C314        S319   1.805       .  S
C315        C316   1.408       .  A
C315        H320   1.082       .  S
C316        C317   1.413       .  A
C317        C318   1.403       .  A
C317        S321   1.794       .  S
C318        H322   1.084       .  S
S319        H324   1.407       .  S
S321        H325   1.403       .  S
H326       S1044   1.405       .  S
C327        C332   1.399       .  A
C327       C1796   1.401       .  A
C327        H337   1.084       .  S
C328        C333   1.489       .  S
C328       C1795   1.401   1_455  A
C328       C1797   1.415   1_455  A
C329        C330   1.406       .  A
C329       C1796   1.415       .  A
C329       S1802   1.801       .  S
C330        C331   1.404       .  A
C330        H335   1.084       .  S
C331        C332   1.416       .  A
C332        S336   1.800       .  S
C333        C338   1.412       .  A
C333        C342   1.406       .  A
S334       C1797   1.801       .  S
S334        H350   1.406   1_655  S
S336        H347   1.407       .  S
C338        C339   1.399       .  A
C338        S343   1.804       .  S
C339        C340   1.405       .  A
C339        H344   1.082       .  S
C340        C341   1.411       .  A
C341        C342   1.408       .  A
C341        S345   1.803       .  S
C342        H346   1.082       .  S
S343        H348   1.406   1_455  S
S345        H349   1.406       .  S
C351        C352   1.399       .  A
C351        C356   1.399       .  A
C351        H361   1.085       .  S
C352        C357   1.484       .  S
C352        C353   1.416       .  A
C353        C354   1.405       .  A
C353        S358   1.806       .  S
C354        C355   1.405       .  A
C354        H359   1.084       .  S
C355        C356   1.419       .  A
C356        S360   1.805       .  S
C357        C362   1.406       .  A
C357        C366   1.403       .  A
S358        H374   1.405       .  S
S360        H371   1.407       .  S
C362        C363   1.401       .  A
C362        S367   1.805       .  S
C363        C364   1.410       .  A
C363        H368   1.081       .  S
C364        C365   1.417       .  A
C365        C366   1.402       .  A
C365        S369   1.797       .  S
C366        H370   1.083       .  S
S367        H372   1.408       .  S
S369        H373   1.399       .  S
C375        C376   1.400       .  A
C375        C380   1.396       .  A
C375        H385   1.084       .  S
C376        C381   1.477       .  S
C376        C377   1.412       .  A
C377        C378   1.399       .  A
C377        S382   1.805       .  S
C378        C379   1.405       .  A
C378        H383   1.084       .  S
C379        C380   1.418       .  A
C380        S384   1.804       .  S
C381        C386   1.410       .  A
C381        C390   1.399       .  A
S382        H398   1.405       .  S
S384        H395   1.407       .  S
C386        C387   1.403       .  A
C386        S391   1.807       .  S
C387        C388   1.404       .  A
C387        H392   1.083       .  S
C388        C389   1.416       .  A
C389        C390   1.396       .  A
C389        S393   1.805       .  S
C390        H394   1.084       .  S
S391        H396   1.407       .  S
S393        H397   1.407       .  S
C399        C400   1.401       .  A
C399        C404   1.398       .  A
C399        H409   1.085       .  S
C400        C405   1.478       .  S
C400        C401   1.410       .  A
C401        C402   1.400       .  A
C401        S406   1.804       .  S
C402        C403   1.406       .  A
C402        H407   1.084       .  S
C403        C404   1.414       .  A
C404        S408   1.799       .  S
C405        C410   1.408       .  A
C405        C414   1.401       .  A
S406        H422   1.406       .  S
S408        H419   1.407       .  S
C410        C411   1.402       .  A
C410        S415   1.806       .  S
C411        C412   1.406       .  A
C411        H416   1.083       .  S
C412        C413   1.417       .  A
C413        C414   1.399       .  A
C413        S417   1.803       .  S
C414        H418   1.084       .  S
S415        H420   1.407       .  S
S417        H421   1.407       .  S
C423        C424   1.401       .  A
C423        C428   1.398       .  A
C423        H433   1.084       .  S
C424        C429   1.482       .  S
C424        C425   1.412       .  A
C425        C426   1.399       .  A
C425        S430   1.805       .  S
C426        C427   1.408       .  A
C426        H431   1.084       .  S
C427        C428   1.419       .  A
C428        S432   1.800       .  S
C429        C434   1.410       .  A
C429        C438   1.404       .  A
S430        H446   1.406       .  S
S432        H443   1.408       .  S
C434        C435   1.400       .  A
C434        S439   1.808       .  S
C435        C436   1.404       .  A
C435        H440   1.084       .  S
C436        C437   1.414       .  A
C437        C438   1.400       .  A
C437        S441   1.803       .  S
C438        H442   1.085       .  S
S439        H444   1.407       .  S
S441        H445   1.407       .  S
C447        C448   1.401       .  A
C447        C452   1.399       .  A
C447        H457   1.084       .  S
C448        C453   1.479       .  S
C448        C449   1.411       .  A
C449        C450   1.398       .  A
C449        S454   1.804       .  S
C450        C451   1.406       .  A
C450        H455   1.084       .  S
C451        C452   1.418       .  A
C452        S456   1.803       .  S
C453        C458   1.408       .  A
C453        C462   1.401       .  A
S454        H470   1.406       .  S
S456        H467   1.408       .  S
C458        C459   1.403       .  A
C458        S463   1.807       .  S
C459        C460   1.407       .  A
C459        H464   1.082       .  S
C460        C461   1.416       .  A
C461        C462   1.398       .  A
C461        S465   1.801       .  S
C462        H466   1.084       .  S
S463        H468   1.407       .  S
S465        H469   1.407       .  S
C471        C472   1.402       .  A
C471        C476   1.401       .  A
C471        H481   1.084       .  S
C472        C477   1.478       .  S
C472        C473   1.411       .  A
C473        C474   1.396       .  A
C473        S478   1.805       .  S
C474        C475   1.404       .  A
C474        H479   1.084       .  S
C475        C476   1.416       .  A
C476        S480   1.803       .  S
C477        C482   1.409       .  A
C477        C486   1.402       .  A
S478        H494   1.406       .  S
S480        H491   1.407       .  S
C482        C483   1.400       .  A
C482        S487   1.808       .  S
C483        C484   1.405       .  A
C483        H488   1.083       .  S
C484        C485   1.415       .  A
C485        C486   1.400       .  A
C485        S489   1.803       .  S
C486        H490   1.084       .  S
S487        H492   1.407       .  S
S489        H493   1.407       .  S
C495        C496   1.400       .  A
C495        C500   1.397       .  A
C495        H505   1.084       .  S
C496        C501   1.475       .  S
C496        C497   1.412       .  A
C497        C498   1.398       .  A
C497        S502   1.804       .  S
C498        C499   1.403       .  A
C498        H503   1.084       .  S
C499        C500   1.416       .  A
C500        S504   1.805   1_455  S
C501        C506   1.407       .  A
C501        C510   1.399       .  A
S502        H518   1.406       .  S
S504        H515   1.407       .  S
C506        C507   1.403       .  A
C506        S511   1.807       .  S
C507        C508   1.409       .  A
C507        H512   1.082       .  S
C508        C509   1.417       .  A
C509        C510   1.396       .  A
C509        S513   1.800       .  S
C510        H514   1.084       .  S
S511        H516   1.407       .  S
S513        H517   1.407       .  S
C519        C524   1.398       .  A
C519       C1988   1.401   1_455  A
C519       H1997   1.084   1_455  S
C520        C525   1.482       .  S
C520       C1987   1.401       .  A
C520       C1989   1.414       .  A
C521        C522   1.405       .  A
C521       C1988   1.414   1_455  A
C521        S526   1.804       .  S
C522        C523   1.404       .  A
C522        H527   1.084       .  S
C523        C524   1.413       .  A
C524        S528   1.803       .  S
C525        C530   1.407       .  A
C525        C534   1.405       .  A
S526       H2010   1.406   1_455  S
S528        H539   1.406       .  S
H529       C1987   1.084       .  S
C530        C531   1.397       .  A
C530        S535   1.808       .  S
C531        C532   1.407       .  A
C531        H536   1.081       .  S
C532        C533   1.412       .  A
C533        C534   1.408       .  A
C533        S537   1.805       .  S
C534        H538   1.083       .  S
S535        H540   1.407       .  S
S537        H541   1.406       .  S
H542       S1994   1.406       .  S
C543        C544   1.403       .  A
C543        C548   1.404       .  A
C543        H553   1.084       .  S
C544        C549   1.485       .  S
C544        C545   1.410       .  A
C545        C546   1.399       .  A
C545        S550   1.804       .  S
C546        C547   1.408       .  A
C546        H551   1.082       .  S
C547        C548   1.416       .  A
C548        S552   1.798       .  S
C549       C1288   1.410   1_545  A
C549       C1292   1.399   1_545  A
S550       H1300   1.404   1_545  S
S552        H563   1.400       .  S
C554        C555   1.409       .  A
C554       C1283   1.411       .  A
C554       S1293   1.806       .  S
C555        C556   1.407       .  A
C555        H560   1.082       .  S
C556        C557   1.418       .  A
C557        C558   1.401       .  A
C557        S561   1.801       .  S
C558       C1283   1.399       .  A
C558       H1296   1.084       .  S
S559       C1288   1.806       .  S
S559       H1298   1.407       .  S
S561        H565   1.407       .  S
H562       C1292   1.084   1_545  S
H564       S1293   1.407       .  S
H566       S1284   1.404       .  S
C567        C568   1.405       .  A
C567        C572   1.409       .  A
C567        H577   1.083       .  S
C568        C573   1.484       .  S
C568        C569   1.410       .  A
C569        C570   1.397       .  A
C569        S574   1.804       .  S
C570        C571   1.406       .  A
C570        H575   1.082       .  S
C571        C572   1.411       .  A
C572        S576   1.805       .  S
C573        C578   1.411       .  A
C573        C582   1.398       .  A
S574        H590   1.404       .  S
S576        H587   1.406       .  S
C578        C579   1.410       .  A
C578        S583   1.806       .  S
C579        C580   1.407       .  A
C579        H584   1.083       .  S
C580        C581   1.419       .  A
C581        C582   1.399       .  A
C581        S585   1.804       .  S
C582        H586   1.084       .  S
S583        H588   1.407       .  S
S585        H589   1.407       .  S
C591        C592   1.401       .  A
C591        C596   1.397       .  A
C591        H601   1.084       .  S
C592        C597   1.481       .  S
C592        C593   1.413       .  A
C593        C594   1.400       .  A
C593        S598   1.803       .  S
C594        C595   1.403       .  A
C594        H599   1.083       .  S
C595        C596   1.415       .  A
C596        S600   1.803       .  S
C597        C602   1.409       .  A
C597       C2074   1.403       .  A
S598        H614   1.406       .  S
S600        H611   1.400       .  S
C602       C2071   1.401       .  A
C602        S607   1.808       .  S
C603        C604   1.406       .  A
C603       C2070   1.401       .  A
C603        H608   1.083       .  S
C604        C605   1.415       .  A
C605        C606   1.401       .  A
C605        S609   1.802       .  S
C606       C2065   1.403   1_455  A
C606        H610   1.084       .  S
S607        H612   1.407       .  S
S609        H613   1.407       .  S
C615        C620   1.400       .  A
C615       C1350   1.403       .  A
C615        H625   1.084       .  S
C616        C621   1.482       .  S
C616       C1349   1.404   1_545  A
C616       C1351   1.412   1_545  A
C617        C618   1.398       .  A
C617       C1350   1.412       .  A
C617       S1356   1.804       .  S
C618        C619   1.405       .  A
C618        H623   1.084       .  S
C619        C620   1.415       .  A
C620        S624   1.803       .  S
C621        C626   1.411       .  A
C621        C630   1.402       .  A
S622       C1351   1.804   1_545  S
S622        H638   1.406       .  S
S624        H635   1.407       .  S
C626        C627   1.403       .  A
C626        S631   1.806       .  S
C627        C628   1.403       .  A
C627        H632   1.081       .  S
C628        C629   1.414       .  A
C629        C630   1.397       .  A
C629        S633   1.802       .  S
C630        H634   1.084       .  S
S631        H636   1.407       .  S
S633        H637   1.401       .  S
C639        C640   1.401       .  A
C639        C644   1.395       .  A
C639        H649   1.084       .  S
C640        C645   1.480       .  S
C640        C641   1.413       .  A
C641        C642   1.400       .  A
C641        S646   1.803       .  S
C642        C643   1.403       .  A
C642        H647   1.083       .  S
C643        C644   1.414       .  A
C644        S648   1.804       .  S
C645        C650   1.409       .  A
C645        C654   1.403       .  A
S646        H662   1.406       .  S
S648        H659   1.400       .  S
C650        C651   1.399       .  A
C650        S655   1.808       .  S
C651        C652   1.404       .  A
C651        H656   1.083       .  S
C652        C653   1.414       .  A
C653        C654   1.401       .  A
C653        S657   1.803       .  S
C654        H658   1.084       .  S
S655        H660   1.407       .  S
S657        H661   1.407       .  S
C663        C664   1.397       .  A
C663        C668   1.393       .  A
C663        H673   1.084       .  S
C664        C669   1.471       .  S
C664        C665   1.413       .  A
C665        C666   1.399       .  A
C665        S670   1.805       .  S
C666        C667   1.403       .  A
C666        H671   1.084       .  S
C667        C668   1.416       .  A
C668       S2140   1.806   1_455  S
C669        C674   1.405       .  A
C669        C678   1.402       .  A
S670        H686   1.405       .  S
S672       C2136   1.806       .  S
S672        H683   1.407       .  S
C674        C675   1.396       .  A
C674        S679   1.808       .  S
C675        C676   1.406       .  A
C675        H680   1.083       .  S
C676        C677   1.414       .  A
C677        C678   1.399       .  A
C677        S681   1.803       .  S
C678        H682   1.084       .  S
S679        H684   1.407       .  S
S681        H685   1.407       .  S
C687        C688   1.402       .  A
C687        C692   1.398       .  A
C687        H697   1.084       .  S
C688        C693   1.472       .  S
C688        C689   1.408       .  A
C689        C690   1.395       .  A
C689        S694   1.805       .  S
C690        C691   1.407       .  A
C690        H695   1.084       .  S
C691        C692   1.414       .  A
C692        S696   1.802       .  S
C693        C698   1.406       .  A
C693        C702   1.402       .  A
S694        H710   1.406       .  S
S696        H707   1.408       .  S
C698        C699   1.399       .  A
C698        S703   1.807       .  S
C699        C700   1.405       .  A
C699        H704   1.083       .  S
C700        C701   1.412       .  A
C701        C702   1.398       .  A
C701        S705   1.803       .  S
C702        H706   1.084       .  S
S703        H708   1.407       .  S
S705        H709   1.407       .  S
C711        C712   1.397       .  A
C711        C716   1.392       .  A
C711        H721   1.084       .  S
C712        C717   1.469       .  S
C712        C713   1.412       .  A
C713        C714   1.400       .  A
C713        S718   1.804       .  S
C714        C715   1.403       .  A
C714        H719   1.083       .  S
C715        C716   1.417       .  A
C716       S2188   1.806   1_455  S
C717        C722   1.409       .  A
C717        C726   1.397       .  A
S718        H734   1.405       .  S
S720       C2184   1.806       .  S
S720        H731   1.407       .  S
C722        C723   1.402       .  A
C722        S727   1.806       .  S
C723        C724   1.403       .  A
C723        H728   1.083       .  S
C724        C725   1.416       .  A
C725        C726   1.393       .  A
C725        S729   1.805       .  S
C726        H730   1.084       .  S
S727        H732   1.407       .  S
S729        H733   1.407       .  S
Zn735       O739   1.960       .  S
Zn735       O740   2.026       .  S
Zn735       O744   2.023       .  S
Zn735       O751   2.010       .  S
Zn736       O739   1.935       .  S
Zn736       O741   1.966       .  S
Zn736       O743   1.969       .  S
Zn736       O747   1.980       .  S
Zn737       O739   1.959       .  S
Zn737       O742   2.015       .  S
Zn737       O745   2.025       .  S
Zn737       O748   2.020       .  S
Zn738       O739   1.958       .  S
Zn738       O746   2.015       .  S
Zn738       O749   2.028       .  S
Zn738       O750   2.017       .  S
O740        C752   1.272       .  A
O741        C753   1.267       .  A
O742        C754   1.274       .  A
O743        C752   1.268       .  A
O744        C754   1.275       .  A
O745        C753   1.273       .  A
O746        C755   1.275       .  A
O747        C756   1.268       .  A
O748        C755   1.275       .  A
O749        C756   1.273       .  A
O750        C757   1.274       .  A
O751        C757   1.274       .  A
C752       C1410   1.472       .  S
C753       C1458   1.469       .  S
C754       C1338   1.483       .  S
C755       C1353   1.479       .  S
C756       C1434   1.472       .  S
C757       C1386   1.476       .  S
C758        H759   1.112       .  S
C758        C764   1.530       .  S
C758        C763   1.530       .  S
C758        C762   1.532       .  S
C760        H761   1.109       .  S
C760        C766   1.548       .  S
C760        C765   1.548       .  S
C760        C767   1.547       .  S
C762        C765   1.378       .  D
C762       C1362   1.484       .  S
C763        C766   1.377       .  D
C763       C1329   1.487       .  S
C764        C767   1.375       .  D
C764       C1377   1.483       .  S
C765       C1281   1.501       .  S
C766       C1266   1.495       .  S
C767       C1305   1.496       .  S
Zn768       O772   1.955       .  S
Zn768       O773   2.014       .  S
Zn768       O777   2.009       .  S
Zn768       O784   2.000       .  S
Zn769       O772   1.960       .  S
Zn769       O774   2.015       .  S
Zn769       O776   2.014       .  S
Zn769       O780   1.998       .  S
Zn770       O772   1.960       .  S
Zn770       O775   2.012       .  S
Zn770       O778   2.013       .  S
Zn770       O781   2.011       .  S
Zn771       O772   1.982       .  S
Zn771       O779   2.062       .  S
Zn771       O782   2.056       .  S
Zn771       O783   2.066       .  S
O773        C785   1.272       .  A
O774        C786   1.273       .  A
O775        C787   1.272       .  A
O776        C785   1.272       .  A
O777        C787   1.273       .  A
O778        C786   1.272       .  A
O779        C788   1.279       .  A
O780        C789   1.272       .  A
O781        C788   1.273       .  A
O782        C789   1.279       .  A
O783        C790   1.280       .  A
O784        C790   1.272       .  A
C785       C1194   1.483       .  S
C786       C1242   1.486       .  S
C787       C1209   1.479       .  S
C788       C1290   1.488       .  S
C789       C1257   1.477       .  S
C790       C1314   1.489       .  S
Zn791       O795   1.981       .  S
Zn791       O796   2.061       .  S
Zn791       O800   2.067       .  S
Zn791       O807   2.072       .  S
Zn792       O795   1.963       .  S
Zn792       O797   2.010       .  S
Zn792       O799   2.006       .  S
Zn792       O803   2.018       .  S
Zn793       O795   1.956       .  S
Zn793       O798   2.005       .  S
Zn793       O801   2.012       .  S
Zn793       O804   2.019       .  S
Zn794       O795   1.953       .  S
Zn794       O802   2.011       .  S
Zn794       O805   1.992       .  S
Zn794       O806   1.992       .  S
O796        C808   1.280       .  A
O797        C809   1.272       .  A
O798        C810   1.273       .  A
O799        C808   1.273       .  A
O800        C810   1.280       .  A
O801        C809   1.271       .  A
O802        C811   1.271       .  A
O803        C812   1.273       .  A
O804        C811   1.272       .  A
O805        C812   1.269       .  A
O806        C813   1.272       .  A
O807        C813   1.280       .  A
C808       C1041   1.487       .  S
C809       C1161   1.487       .  S
C810       C1065   1.486       .  S
C811       C1137   1.480       .  S
C812       C1113   1.479       .  S
C813       C1089   1.487       .  S
C814        H815   1.111       .  S
C814        C820   1.539       .  S
C814        C819   1.542       .  S
C814        C818   1.539       .  S
C816        H817   1.109       .  S
C816        C822   1.549       .  S
C816        C821   1.544       .  S
C816        C823   1.552       .  S
C818        C821   1.372       .  D
C818        C978   1.489       .  S
C819        C822   1.380       .  D
C819       C1017   1.495       .  S
C820        C823   1.378       .  D
C820        C993   1.499       .  S
C821       C1074   1.498       .  S
C822       C1098   1.504       .  S
C823       C1050   1.498       .  S
Zn824       O828   1.958       .  S
Zn824       O829   2.012       .  S
Zn824       O833   2.030       .  S
Zn824       O840   2.030       .  S
Zn825       O828   1.963       .  S
Zn825       O830   2.029       .  S
Zn825       O832   2.026       .  S
Zn825       O836   2.014       .  S
Zn826       O828   1.941       .  S
Zn826       O831   1.985       .  S
Zn826       O834   1.975       .  S
Zn826       O837   1.966       .  S
Zn827       O828   1.966       .  S
Zn827       O835   2.033       .  S
Zn827       O838   2.042       .  S
Zn827       O839   2.040       .  S
O829        C841   1.274       .  A
O830        C842   1.273       .  A
O831        C843   1.268       .  A
O832        C841   1.276       .  A
O833        C843   1.274       .  A
O834        C842   1.267       .  A
O835        C844   1.274       .  A
O836        C845   1.274       .  A
O837        C844   1.267       .  A
O838        C845   1.278       .  A
O839        C846   1.278       .  A
O840        C846   1.276       .  A
C841       C1002   1.482       .  S
C842        C945   1.477       .  S
C843        C906   1.480       .  S
C844        C921   1.467       .  S
C845        C969   1.485       .  S
C846       C1026   1.489       .  S
Zn847       O851   1.928   1_554  S
Zn847      O2320   1.971   1_455  S
Zn847       O856   1.985       .  S
Zn847      O1597   1.976   1_455  S
Zn848      O2319   1.964       .  S
Zn848      O2321   2.015       .  S
Zn848       O855   2.034       .  S
Zn849       O851   1.964       .  S
Zn849       O854   2.036       .  S
Zn849       O857   2.012       .  S
Zn850      O1585   1.961       .  S
Zn850      O2326   2.001       .  S
Zn850       O861   2.014       .  S
Zn850       O862   2.036       .  S
O851      Zn2316   1.963   1_455  S
O851      Zn1584   1.961   1_455  S
O852      Zn2315   1.971       .  S
O852        C864   1.268       .  A
O853      Zn2316   2.013   1_455  S
O853        C865   1.274       .  A
O854        C866   1.274   1_556  A
O855        C864   1.275   1_556  A
O856        C866   1.269       .  A
O857        C865   1.273       .  A
O858      Zn2318   2.006   1_455  S
O858        C867   1.273       .  A
O859        C868   1.273       .  A
O860        C867   1.274       .  A
O861        C868   1.274       .  A
O862        C869   1.274   1_556  A
O863      Zn1581   1.971   1_565  S
O863        C869   1.268       .  A
C864        C954   1.474       .  S
C865       C1185   1.482       .  S
C866        C897   1.473       .  S
C867       C1233   1.475       .  S
C868       C1218   1.478       .  S
C869        C930   1.482       .  S
Zn870       O875   2.039       .  S
Zn870      O2354   2.014   1_455  S
Zn871       O874   1.924       .  S
Zn871       O876   1.967       .  S
Zn871      O1616   1.970   1_455  S
Zn872       O874   1.954       .  S
Zn872       O877   2.000       .  S
Zn872       O880   2.024       .  S
Zn872      O2351   2.000   1_455  S
Zn873      O1608   1.964   1_565  S
Zn873       O884   2.031       .  S
Zn873       O885   2.018       .  S
O874      Zn1607   1.963   1_455  S
O875        C887   1.275       .  A
O876        C888   1.267       .  A
O877        C889   1.272       .  A
O878        C887   1.267       .  A
O879        C889   1.275       .  A
O880        C888   1.273       .  A
O881        C890   1.274       .  A
O882      Zn1605   1.974   1_565  S
O882        C891   1.268       .  A
O883      Zn2340   2.002       .  S
O883        C890   1.272       .  A
O884        C891   1.274       .  A
O885        C892   1.274       .  A
O886      Zn2338   2.015       .  S
O886        C892   1.274       .  A
C887       C1449   1.473       .  S
C888       C1401   1.470       .  S
C889       C1122   1.475       .  S
C890       C1170   1.477       .  S
C891       C1425   1.480       .  S
C892       C1146   1.480       .  S
C893        C894   1.400       .  A
C893        C898   1.396       .  A
C893        H903   1.083       .  S
C894        C899   1.475       .  S
C894        C895   1.412       .  A
C895        C896   1.401       .  A
C895        S900   1.805       .  S
C896        C897   1.404       .  A
C896        H901   1.083       .  S
C897        C898   1.414       .  A
C899        C904   1.408       .  A
C899        C908   1.399       .  A
S900        H916   1.405       .  S
S902        H913   1.407       .  S
C904        C905   1.402       .  A
C904        S909   1.806       .  S
C905        C906   1.405       .  A
C905        H910   1.082       .  S
C906        C907   1.419       .  A
C907        C908   1.397       .  A
C907        S911   1.804       .  S
C908        H912   1.084       .  S
S909        H914   1.407       .  S
S911        H915   1.408       .  S
C917        C918   1.399       .  A
C917        C922   1.394       .  A
C917        H927   1.084       .  S
C918        C923   1.472       .  S
C918        C919   1.413       .  A
C919        C920   1.399       .  A
C919        S924   1.804       .  S
C920        C921   1.402       .  A
C920        H925   1.084       .  S
C921        C922   1.414       .  A
C922        S926   1.806       .  S
C923        C928   1.404       .  A
C923        C932   1.402       .  A
S924        H940   1.405       .  S
S926        H937   1.407       .  S
C928        C929   1.396       .  A
C928        S933   1.808       .  S
C929        C930   1.409       .  A
C929        H934   1.083       .  S
C930        C931   1.416       .  A
C931        C932   1.400       .  A
C931        S935   1.801       .  S
C932        H936   1.084       .  S
S933        H938   1.407       .  S
S935        H939   1.407       .  S
C941        C942   1.402       .  A
C941        C946   1.399       .  A
C941        H951   1.084       .  S
C942        C947   1.472       .  S
C942        C943   1.407       .  A
C943        C944   1.395       .  A
C943        S948   1.804       .  S
C944        C945   1.407       .  A
C944        H949   1.084       .  S
C945        C946   1.414       .  A
C946        S950   1.802       .  S
C947        C952   1.404       .  A
C947        C956   1.402       .  A
S948        H964   1.406       .  S
S950        H961   1.407       .  S
C952        C953   1.398       .  A
C952        S957   1.807       .  S
C953        C954   1.407       .  A
C953        H958   1.083       .  S
C954        C955   1.413       .  A
C955        C956   1.399       .  A
C955        S959   1.802       .  S
C956        H960   1.084       .  S
S957       H2430   1.407       .  S
S959        H963   1.407       .  S
H962       S2425   1.407   1_455  S
C965       C2434   1.401       .  A
C965        C970   1.401       .  A
C965       H2443   1.084       .  S
C966        C971   1.486       .  S
C966       C2433   1.401   1_455  A
C966       C2435   1.414   1_455  A
C967       C2434   1.414       .  A
C967        C968   1.402       .  A
C967        S972   1.801       .  S
C968        C969   1.404       .  A
C968        H973   1.083       .  S
C969        C970   1.419       .  A
C970        S974   1.804       .  S
C971        C976   1.410       .  A
C971        C980   1.404       .  A
S972       H2456   1.406       .  S
S974        H985   1.407       .  S
H975       C2433   1.084   1_455  S
C976        C977   1.403       .  A
C976        S981   1.805       .  S
C977        C978   1.404       .  A
C977        H982   1.083       .  S
C978        C979   1.411       .  A
C979        C980   1.401       .  A
C979        S983   1.797       .  S
C980        H984   1.084       .  S
S981        H986   1.407       .  S
S983        H987   1.403       .  S
H988       S2440   1.405   1_455  S
C989        C990   1.402       .  A
C989        C994   1.405       .  A
C989        H999   1.083       .  S
C990        C995   1.485       .  S
C990        C991   1.411       .  A
C991        C992   1.399       .  A
C991        S996   1.803       .  S
C992        C993   1.407       .  A
C992        H997   1.083       .  S
C993        C994   1.414       .  A
C994        S998   1.802       .  S
S998       H1009   1.406       .  S
C1000      C1001   1.403       .  A
C1000      S1005   1.807       .  S
C1001      C1002   1.405       .  A
C1001      H1006   1.083       .  S
C1002      C1003   1.418       .  A
C1003      C1004   1.399       .  A
C1003      S1007   1.804       .  S
S1005      H1010   1.407       .  S
S1007      H1011   1.407       .  S
C1013      C1014   1.401       .  A
C1013      C1018   1.399       .  A
C1013      H1023   1.084       .  S
C1014      C1019   1.489       .  S
C1014      C1015   1.415       .  A
C1015      C1016   1.404       .  A
C1015      S1020   1.803       .  S
C1016      C1017   1.404       .  A
C1016      H1021   1.084       .  S
C1017      C1018   1.419       .  A
C1018      S1022   1.804       .  S
C1019      C1024   1.410       .  A
C1019      C1028   1.404       .  A
S1020      H1036   1.405       .  S
S1022      H1033   1.400       .  S
C1024      C1025   1.404       .  A
C1024      S1029   1.808       .  S
C1025      C1026   1.406       .  A
C1025      H1030   1.082       .  S
C1026      C1027   1.416       .  A
C1027      C1028   1.408       .  A
C1027      S1031   1.807       .  S
C1028      H1032   1.082       .  S
S1029      H1034   1.407       .  S
S1031      H1035   1.407       .  S
C1037      C1042   1.403       .  A
C1038      C1043   1.485       .  S
C1039      C1040   1.402       .  A
C1039      S1044   1.799       .  S
C1040      C1041   1.403       .  A
C1040      H1045   1.084       .  S
C1041      C1042   1.419       .  A
C1042      S1046   1.804       .  S
C1043      C1048   1.408       .  A
C1043      C1052   1.402       .  A
S1046      H1057   1.407       .  S
C1048      C1049   1.403       .  A
C1048      S1053   1.805       .  S
C1049      C1050   1.408       .  A
C1049      H1054   1.082       .  S
C1050      C1051   1.413       .  A
C1051      C1052   1.403       .  A
C1051      S1055   1.794       .  S
C1052      H1056   1.084       .  S
S1053      H1058   1.407       .  S
S1055      H1059   1.403       .  S
C1061      C2530   1.401       .  A
C1061      C1066   1.399       .  A
C1061      H1071   1.084       .  S
C1062      C1067   1.489       .  S
C1062      C2529   1.400   1_455  A
C1062      C2531   1.415   1_455  A
C1063      C2530   1.415       .  A
C1063      C1064   1.406       .  A
C1063      S2536   1.801       .  S
C1064      C1065   1.404       .  A
C1064      H1069   1.084       .  S
C1065      C1066   1.416       .  A
C1066      S1070   1.800       .  S
C1067      C1072   1.412       .  A
C1067      C1076   1.405       .  A
S1068      C2531   1.801       .  S
S1068      H1084   1.405   1_655  S
S1070      H1081   1.407       .  S
C1072      C1073   1.399       .  A
C1072      S1077   1.804       .  S
C1073      C1074   1.405       .  A
C1073      H1078   1.081       .  S
C1074      C1075   1.411       .  A
C1075      C1076   1.409       .  A
C1075      S1079   1.802       .  S
C1076      H1080   1.082       .  S
S1077      H1082   1.406   1_455  S
S1079      H1083   1.406       .  S
C1085      C1086   1.399       .  A
C1085      C1090   1.399       .  A
C1085      H1095   1.084       .  S
C1086      C1091   1.484       .  S
C1086      C1087   1.416       .  A
C1087      C1088   1.406       .  A
C1087      S1092   1.807       .  S
C1088      C1089   1.405       .  A
C1088      H1093   1.084       .  S
C1089      C1090   1.419       .  A
C1090      S1094   1.805       .  S
C1091      C1096   1.406       .  A
C1091      C1100   1.403       .  A
S1092      H1108   1.404       .  S
S1094      H1105   1.407       .  S
C1096      C1097   1.402       .  A
C1096      S1101   1.806       .  S
C1097      C1098   1.410       .  A
C1097      H1102   1.081       .  S
C1098      C1099   1.417       .  A
C1099      C1100   1.403       .  A
C1099      S1103   1.797       .  S
C1100      H1104   1.083       .  S
S1101      H1106   1.407       .  S
S1103      H1107   1.398       .  S
C1109      C1110   1.400       .  A
C1109      C1114   1.397       .  A
C1109      H1119   1.084       .  S
C1110      C1115   1.477       .  S
C1110      C1111   1.412       .  A
C1111      C1112   1.398       .  A
C1111      S1116   1.805       .  S
C1112      C1113   1.404       .  A
C1112      H1117   1.084       .  S
C1113      C1114   1.418       .  A
C1114      S1118   1.804       .  S
C1115      C1120   1.410       .  A
C1115      C1124   1.399       .  A
S1116      H1132   1.406       .  S
S1118      H1129   1.407       .  S
C1120      C1121   1.403       .  A
C1120      S1125   1.807       .  S
C1121      C1122   1.404       .  A
C1121      H1126   1.083       .  S
C1122      C1123   1.416       .  A
C1123      C1124   1.396       .  A
C1123      S1127   1.805       .  S
C1124      H1128   1.084       .  S
S1125      H1130   1.407       .  S
S1127      H1131   1.407       .  S
C1133      C1134   1.401       .  A
C1133      C1138   1.398       .  A
C1133      H1143   1.085       .  S
C1134      C1139   1.477       .  S
C1134      C1135   1.410       .  A
C1135      C1136   1.400       .  A
C1135      S1140   1.804       .  S
C1136      C1137   1.406       .  A
C1136      H1141   1.084       .  S
C1137      C1138   1.414       .  A
C1138      S1142   1.799       .  S
C1139      C1144   1.408       .  A
C1139      C1148   1.400       .  A
S1140      H1156   1.405       .  S
S1142      H1153   1.407       .  S
C1144      C1145   1.402       .  A
C1144      S1149   1.806       .  S
C1145      C1146   1.406       .  A
C1145      H1150   1.083       .  S
C1146      C1147   1.416       .  A
C1147      C1148   1.399       .  A
C1147      S1151   1.803       .  S
C1148      H1152   1.084       .  S
S1149      H1154   1.407       .  S
S1151      H1155   1.407       .  S
C1157      C1158   1.401       .  A
C1157      C1162   1.398       .  A
C1157      H1167   1.084       .  S
C1158      C1163   1.481       .  S
C1158      C1159   1.411       .  A
C1159      C1160   1.399       .  A
C1159      S1164   1.805       .  S
C1160      C1161   1.408       .  A
C1160      H1165   1.084       .  S
C1161      C1162   1.418       .  A
C1162      S1166   1.800       .  S
C1163      C1168   1.410       .  A
C1163      C1172   1.404       .  A
S1164      H1180   1.406       .  S
S1166      H1177   1.408       .  S
C1168      C1169   1.400       .  A
C1168      S1173   1.807       .  S
C1169      C1170   1.405       .  A
C1169      H1174   1.083       .  S
C1170      C1171   1.414       .  A
C1171      C1172   1.400       .  A
C1171      S1175   1.803       .  S
C1172      H1176   1.085       .  S
S1173      H1178   1.407       .  S
S1175      H1179   1.407       .  S
C1181      C1182   1.401       .  A
C1181      C1186   1.399       .  A
C1181      H1191   1.084       .  S
C1182      C1187   1.479       .  S
C1182      C1183   1.411       .  A
C1183      C1184   1.398       .  A
C1183      S1188   1.804       .  S
C1184      C1185   1.406       .  A
C1184      H1189   1.084       .  S
C1185      C1186   1.418       .  A
C1186      S1190   1.803       .  S
C1187      C1192   1.408       .  A
C1187      C1196   1.401       .  A
S1188      H1204   1.406       .  S
S1190      H1201   1.408       .  S
C1192      C1193   1.403       .  A
C1192      S1197   1.807       .  S
C1193      C1194   1.407       .  A
C1193      H1198   1.082       .  S
C1194      C1195   1.416       .  A
C1195      C1196   1.398       .  A
C1195      S1199   1.801       .  S
C1196      H1200   1.084       .  S
S1197      H1202   1.407       .  S
S1199      H1203   1.407       .  S
C1205      C1206   1.402       .  A
C1205      C1210   1.402       .  A
C1205      H1215   1.084       .  S
C1206      C1211   1.478       .  S
C1206      C1207   1.411       .  A
C1207      C1208   1.396       .  A
C1207      S1212   1.805       .  S
C1208      C1209   1.404       .  A
C1208      H1213   1.084       .  S
C1209      C1210   1.416       .  A
C1210      S1214   1.803       .  S
C1211      C1216   1.409       .  A
C1211      C1220   1.401       .  A
S1212      H1228   1.406       .  S
S1214      H1225   1.407       .  S
C1216      C1217   1.401       .  A
C1216      S1221   1.808       .  S
C1217      C1218   1.405       .  A
C1217      H1222   1.083       .  S
C1218      C1219   1.415       .  A
C1219      C1220   1.400       .  A
C1219      S1223   1.803       .  S
C1220      H1224   1.084       .  S
S1221      H1226   1.407       .  S
S1223      H1227   1.407       .  S
C1229      C1230   1.401       .  A
C1229      C1234   1.397       .  A
C1229      H1239   1.084       .  S
C1230      C1235   1.477       .  S
C1230      C1231   1.412       .  A
C1231      C1232   1.399       .  A
C1231      S1236   1.804       .  S
C1232      C1233   1.404       .  A
C1232      H1237   1.084       .  S
C1233      C1234   1.415       .  A
C1234      S1238   1.805   1_455  S
C1235      C1240   1.407       .  A
C1235      C1244   1.400       .  A
S1236      H1252   1.406       .  S
S1238      H1249   1.407       .  S
C1240      C1241   1.403       .  A
C1240      S1245   1.807       .  S
C1241      C1242   1.409       .  A
C1241      H1246   1.082       .  S
C1242      C1243   1.417       .  A
C1243      C1244   1.397       .  A
C1243      S1247   1.801       .  S
C1244      H1248   1.084       .  S
S1245      H1250   1.407       .  S
S1247      H1251   1.407       .  S
C1253      C2722   1.401   1_455  A
C1253      C1258   1.398       .  A
C1253      H2731   1.084   1_455  S
C1254      C1259   1.483       .  S
C1254      C2721   1.401       .  A
C1254      C2723   1.414       .  A
C1255      C2722   1.414   1_455  A
C1255      C1256   1.404       .  A
C1255      S1260   1.804       .  S
C1256      C1257   1.404       .  A
C1256      H1261   1.084       .  S
C1257      C1258   1.413       .  A
C1258      S1262   1.803       .  S
C1259      C1264   1.407       .  A
C1259      C1268   1.405       .  A
S1260      H2744   1.406   1_455  S
S1262      H1273   1.407       .  S
H1263      C2721   1.084       .  S
C1264      C1265   1.397       .  A
C1264      S1269   1.808       .  S
C1265      C1266   1.406       .  A
C1265      H1270   1.080       .  S
C1266      C1267   1.412       .  A
C1267      C1268   1.408       .  A
C1267      S1271   1.805       .  S
C1268      H1272   1.082       .  S
S1269      H1274   1.407       .  S
S1271      H1275   1.406       .  S
H1276      S2728   1.406       .  S
C1277      C1278   1.404       .  A
C1277      C1282   1.405       .  A
C1277      H1287   1.084       .  S
C1278      C1283   1.485       .  S
C1278      C1279   1.410       .  A
C1279      C1280   1.399       .  A
C1279      S1284   1.804       .  S
C1280      C1281   1.408       .  A
C1280      H1285   1.082       .  S
C1281      C1282   1.416       .  A
C1282      S1286   1.798       .  S
S1286      H1297   1.399       .  S
C1288      C1289   1.409       .  A
C1289      C1290   1.407       .  A
C1289      H1294   1.082       .  S
C1290      C1291   1.418       .  A
C1291      C1292   1.400       .  A
C1291      S1295   1.802       .  S
S1295      H1299   1.407       .  S
C1301      C1302   1.405       .  A
C1301      C1306   1.409       .  A
C1301      H1311   1.083       .  S
C1302      C1307   1.484       .  S
C1302      C1303   1.410       .  A
C1303      C1304   1.397       .  A
C1303      S1308   1.804       .  S
C1304      C1305   1.406       .  A
C1304      H1309   1.082       .  S
C1305      C1306   1.411       .  A
C1306      S1310   1.805       .  S
C1307      C1312   1.411       .  A
C1307      C1316   1.398       .  A
S1308      H1324   1.404       .  S
S1310      H1321   1.406       .  S
C1312      C1313   1.410       .  A
C1312      S1317   1.806       .  S
C1313      C1314   1.408       .  A
C1313      H1318   1.083       .  S
C1314      C1315   1.419       .  A
C1315      C1316   1.398       .  A
C1315      S1319   1.804       .  S
C1316      H1320   1.084       .  S
S1317      H1322   1.407       .  S
S1319      H1323   1.407       .  S
C1325      C1326   1.402       .  A
C1325      C1330   1.397       .  A
C1325      H1335   1.084       .  S
C1326      C1331   1.482       .  S
C1326      C1327   1.414       .  A
C1327      C1328   1.400       .  A
C1327      S1332   1.804       .  S
C1328      C1329   1.402       .  A
C1328      H1333   1.083       .  S
C1329      C1330   1.415       .  A
C1330      S1334   1.803       .  S
C1331      C1336   1.410       .  A
C1331      C2808   1.403       .  A
S1332      H1348   1.406       .  S
S1334      H1345   1.400       .  S
C1336      C2805   1.401       .  A
C1336      S1341   1.808       .  S
C1337      C2804   1.402       .  A
C1337      C1338   1.406       .  A
C1337      H1342   1.082       .  S
C1338      C1339   1.415       .  A
C1339      C1340   1.401       .  A
C1339      S1343   1.802       .  S
C1340      C2799   1.403   1_455  A
C1340      H1344   1.083       .  S
S1341      H1346   1.407       .  S
S1343      H1347   1.407       .  S
C1349      C1354   1.401       .  A
C1349      H1359   1.084       .  S
C1350      C1355   1.480       .  S
C1351      C1352   1.398       .  A
C1352      C1353   1.405       .  A
C1352      H1357   1.084       .  S
C1353      C1354   1.415       .  A
C1354      S1358   1.803       .  S
C1355      C1360   1.410       .  A
C1355      C1364   1.401       .  A
S1356      H1372   1.406       .  S
S1358      H1369   1.407       .  S
C1360      C1361   1.403       .  A
C1360      S1365   1.806       .  S
C1361      C1362   1.402       .  A
C1361      H1366   1.082       .  S
C1362      C1363   1.414       .  A
C1363      C1364   1.396       .  A
C1363      S1367   1.802       .  S
C1364      H1368   1.084       .  S
S1365      H1370   1.407       .  S
S1367      H1371   1.400       .  S
C1373      C1374   1.401       .  A
C1373      C1378   1.396       .  A
C1373      H1383   1.084       .  S
C1374      C1379   1.479       .  S
C1374      C1375   1.412       .  A
C1375      C1376   1.400       .  A
C1375      S1380   1.803       .  S
C1376      C1377   1.403       .  A
C1376      H1381   1.083       .  S
C1377      C1378   1.414       .  A
C1378      S1382   1.804       .  S
C1379      C1384   1.409       .  A
C1379      C1388   1.403       .  A
S1380      H1396   1.406       .  S
S1382      H1393   1.400       .  S
C1384      C1385   1.400       .  A
C1384      S1389   1.808       .  S
C1385      C1386   1.404       .  A
C1385      H1390   1.083       .  S
C1386      C1387   1.414       .  A
C1387      C1388   1.401       .  A
C1387      S1391   1.803       .  S
C1388      H1392   1.084       .  S
S1389      H1394   1.407       .  S
S1391      H1395   1.407       .  S
C1397      C1398   1.397       .  A
C1397      C1402   1.393       .  A
C1397      H1407   1.084       .  S
C1398      C1403   1.470       .  S
C1398      C1399   1.413       .  A
C1399      C1400   1.398       .  A
C1399      S1404   1.805       .  S
C1400      C1401   1.402       .  A
C1400      H1405   1.084       .  S
C1401      C1402   1.416       .  A
C1402      S2874   1.806   1_455  S
C1403      C1408   1.405       .  A
C1403      C1412   1.402       .  A
S1404      H1420   1.405       .  S
S1406      C2870   1.806       .  S
S1406      H1417   1.407       .  S
C1408      C1409   1.396       .  A
C1408      S1413   1.808       .  S
C1409      C1410   1.406       .  A
C1409      H1414   1.083       .  S
C1410      C1411   1.414       .  A
C1411      C1412   1.399       .  A
C1411      S1415   1.803       .  S
C1412      H1416   1.084       .  S
S1413      H1418   1.407       .  S
S1415      H1419   1.407       .  S
C1421      C1422   1.402       .  A
C1421      C1426   1.399       .  A
C1421      H1431   1.084       .  S
C1422      C1427   1.474       .  S
C1422      C1423   1.408       .  A
C1423      C1424   1.395       .  A
C1423      S1428   1.805       .  S
C1424      C1425   1.408       .  A
C1424      H1429   1.084       .  S
C1425      C1426   1.414       .  A
C1426      S1430   1.802       .  S
C1427      C1432   1.407       .  A
C1427      C1436   1.402       .  A
S1428      H1444   1.406       .  S
S1430      H1441   1.408       .  S
C1432      C1433   1.399       .  A
C1432      S1437   1.807       .  S
C1433      C1434   1.405       .  A
C1433      H1438   1.083       .  S
C1434      C1435   1.413       .  A
C1435      C1436   1.398       .  A
C1435      S1439   1.803       .  S
C1436      H1440   1.084       .  S
S1437      H1442   1.407       .  S
S1439      H1443   1.407       .  S
C1445      C1446   1.397       .  A
C1445      C1450   1.392       .  A
C1445      H1455   1.084       .  S
C1446      C1451   1.469       .  S
C1446      C1447   1.412       .  A
C1447      C1448   1.401       .  A
C1447      S1452   1.804       .  S
C1448      C1449   1.404       .  A
C1448      H1453   1.083       .  S
C1449      C1450   1.417       .  A
C1450      S2922   1.806   1_455  S
C1451      C1456   1.409       .  A
C1451      C1460   1.398       .  A
S1452      H1468   1.405       .  S
S1454      C2918   1.806       .  S
S1454      H1465   1.407       .  S
C1456      C1457   1.401       .  A
C1456      S1461   1.806       .  S
C1457      C1458   1.402       .  A
C1457      H1462   1.083       .  S
C1458      C1459   1.416       .  A
C1459      C1460   1.394       .  A
C1459      S1463   1.805       .  S
C1460      H1464   1.084       .  S
S1461      H1466   1.407       .  S
S1463      H1467   1.407       .  S
Zn1469     O1473   1.961       .  S
Zn1469     O1474   2.030       .  S
Zn1469     O1478   2.023       .  S
Zn1469     O1485   2.011       .  S
Zn1470     O1473   1.935       .  S
Zn1470     O1475   1.964       .  S
Zn1470     O1477   1.973       .  S
Zn1470     O1481   1.979       .  S
Zn1471     O1473   1.959       .  S
Zn1471     O1476   2.010       .  S
Zn1471     O1479   2.026       .  S
Zn1471     O1482   2.021       .  S
Zn1472     O1473   1.957       .  S
Zn1472     O1480   2.017       .  S
Zn1472     O1483   2.024       .  S
Zn1472     O1484   2.014       .  S
O1474      C1486   1.273       .  A
O1475      C1487   1.267       .  A
O1476      C1488   1.274       .  A
O1477      C1486   1.268       .  A
O1478      C1488   1.275       .  A
O1479      C1487   1.273       .  A
O1480      C1489   1.275       .  A
O1481      C1490   1.268       .  A
O1482      C1489   1.275       .  A
O1483      C1490   1.273       .  A
O1484      C1491   1.274       .  A
O1485      C1491   1.275       .  A
C1486      C2144   1.475       .  S
C1487      C2192   1.469       .  S
C1488      C2072   1.480       .  S
C1489      C2087   1.480       .  S
C1490      C2168   1.471       .  S
C1491      C2120   1.477       .  S
C1492      H1493   1.112       .  S
C1492      C1498   1.530       .  S
C1492      C1497   1.530       .  S
C1492      C1496   1.532       .  S
C1494      H1495   1.109       .  S
C1494      C1500   1.548       .  S
C1494      C1499   1.548       .  S
C1494      C1501   1.548       .  S
C1496      C1499   1.377       .  D
C1496      C2096   1.485       .  S
C1497      C1500   1.377       .  D
C1497      C2063   1.486       .  S
C1498      C1501   1.376       .  D
C1498      C2111   1.483       .  S
C1499      C2015   1.499       .  S
C1500      C2000   1.497       .  S
C1501      C2039   1.497       .  S
Zn1502     O1506   1.956       .  S
Zn1502     O1507   2.017       .  S
Zn1502     O1511   2.012       .  S
Zn1502     O1518   2.000       .  S
Zn1503     O1506   1.959       .  S
Zn1503     O1508   2.013       .  S
Zn1503     O1510   2.012       .  S
Zn1503     O1514   1.998       .  S
Zn1504     O1506   1.955       .  S
Zn1504     O1509   2.005       .  S
Zn1504     O1512   2.013       .  S
Zn1504     O1515   2.001       .  S
Zn1505     O1506   1.984       .  S
Zn1505     O1513   2.070       .  S
Zn1505     O1516   2.055       .  S
Zn1505     O1517   2.069       .  S
O1507      C1519   1.272       .  A
O1508      C1520   1.272       .  A
O1509      C1521   1.271       .  A
O1510      C1519   1.271       .  A
O1511      C1521   1.273       .  A
O1512      C1520   1.272       .  A
O1513      C1522   1.280       .  A
O1514      C1523   1.273       .  A
O1515      C1522   1.271       .  A
O1516      C1523   1.279       .  A
O1517      C1524   1.280       .  A
O1518      C1524   1.273       .  A
C1519      C1928   1.484       .  S
C1520      C1976   1.478       .  S
C1521      C1943   1.478       .  S
C1522      C2024   1.497       .  S
C1523      C1991   1.477       .  S
C1524      C2048   1.488       .  S
Zn1525     O1529   1.981       .  S
Zn1525     O1530   2.062       .  S
Zn1525     O1534   2.066       .  S
Zn1525     O1541   2.069       .  S
Zn1526     O1529   1.962       .  S
Zn1526     O1531   2.008       .  S
Zn1526     O1533   2.006       .  S
Zn1526     O1537   2.017       .  S
Zn1527     O1529   1.957       .  S
Zn1527     O1532   2.005       .  S
Zn1527     O1535   2.014       .  S
Zn1527     O1538   2.019       .  S
Zn1528     O1529   1.953       .  S
Zn1528     O1536   2.010       .  S
Zn1528     O1539   1.994       .  S
Zn1528     O1540   1.995       .  S
O1530      C1542   1.280       .  A
O1531      C1543   1.272       .  A
O1532      C1544   1.273       .  A
O1533      C1542   1.273       .  A
O1534      C1544   1.280       .  A
O1535      C1543   1.271       .  A
O1536      C1545   1.271       .  A
O1537      C1546   1.273       .  A
O1538      C1545   1.272       .  A
O1539      C1546   1.269       .  A
O1540      C1547   1.272       .  A
O1541      C1547   1.280       .  A
C1542      C1775   1.486       .  S
C1543      C1895   1.487       .  S
C1544      C1799   1.485       .  S
C1545      C1871   1.480       .  S
C1546      C1847   1.478       .  S
C1547      C1823   1.487       .  S
C1548      H1549   1.111       .  S
C1548      C1554   1.538       .  S
C1548      C1553   1.541       .  S
C1548      C1552   1.538       .  S
C1550      H1551   1.109       .  S
C1550      C1556   1.549       .  S
C1550      C1555   1.545       .  S
C1550      C1557   1.551       .  S
C1552      C1555   1.372       .  D
C1552      C1712   1.490       .  S
C1553      C1556   1.381       .  D
C1553      C1751   1.494       .  S
C1554      C1557   1.377       .  D
C1554      C1727   1.497       .  S
C1555      C1808   1.496       .  S
C1556      C1832   1.504       .  S
C1557      C1784   1.498       .  S
Zn1558     O1562   1.959       .  S
Zn1558     O1563   2.013       .  S
Zn1558     O1567   2.028       .  S
Zn1558     O1574   2.031       .  S
Zn1559     O1562   1.963       .  S
Zn1559     O1564   2.028       .  S
Zn1559     O1566   2.026       .  S
Zn1559     O1570   2.010       .  S
Zn1560     O1562   1.940       .  S
Zn1560     O1565   1.983       .  S
Zn1560     O1568   1.976       .  S
Zn1560     O1571   1.968       .  S
Zn1561     O1562   1.966       .  S
Zn1561     O1569   2.035       .  S
Zn1561     O1572   2.040       .  S
Zn1561     O1573   2.037       .  S
O1563      C1575   1.274       .  A
O1564      C1576   1.272       .  A
O1565      C1577   1.268       .  A
O1566      C1575   1.276       .  A
O1567      C1577   1.274       .  A
O1568      C1576   1.268       .  A
O1569      C1578   1.274       .  A
O1570      C1579   1.274       .  A
O1571      C1578   1.267       .  A
O1572      C1579   1.278       .  A
O1573      C1580   1.278       .  A
O1574      C1580   1.276       .  A
C1575      C1736   1.482       .  S
C1576      C1679   1.476       .  S
C1577      C1640   1.480       .  S
C1578      C1655   1.469       .  S
C1579      C1703   1.483       .  S
C1580      C1760   1.489       .  S
Zn1581     O1585   1.926   1_544  S
Zn1581     O1590   1.981       .  S
Zn1582     O1589   2.035       .  S
Zn1582     O2327   2.012   1_545  S
Zn1583     O1585   1.962   1_545  S
Zn1583     O1588   2.034       .  S
Zn1583     O1591   2.010       .  S
Zn1583     O2328   2.012   1_545  S
Zn1584     O1595   2.015       .  S
Zn1584     O1596   2.037       .  S
O1586      C1598   1.268       .  A
O1587      C1599   1.274       .  A
O1588      C1600   1.274   1_556  A
O1589      C1598   1.275   1_556  A
O1590      C1600   1.268       .  A
O1591      C1599   1.273       .  A
O1592      C1601   1.272       .  A
O1593     Zn2316   2.014       .  S
O1593      C1602   1.273       .  A
O1594     Zn2317   2.014       .  S
O1594      C1601   1.274       .  A
O1595      C1602   1.274       .  A
O1596      C1603   1.274   1_556  A
O1597      C1603   1.269       .  A
C1598      C1688   1.474       .  S
C1599      C1919   1.482       .  S
C1600      C1631   1.472       .  S
C1601      C1967   1.477       .  S
C1602      C1952   1.476       .  S
C1603      C1664   1.484       .  S
Zn1604     O2342   1.964       .  S
Zn1604     O1609   2.039       .  S
Zn1604     O2347   2.021       .  S
Zn1605     O1608   1.927       .  S
Zn1605     O1610   1.971       .  S
Zn1605     O2346   1.961   1_545  S
Zn1606     O1608   1.955       .  S
Zn1606     O1611   2.001       .  S
Zn1606     O1614   2.025       .  S
Zn1607     O2349   2.019       .  S
Zn1607     O1618   2.029       .  S
Zn1607     O1619   2.016       .  S
O1608     Zn2338   1.965   1_545  S
O1609      C1621   1.275       .  A
O1610      C1622   1.267       .  A
O1611      C1623   1.272       .  A
O1612     Zn2339   1.963       .  S
O1612      C1621   1.267       .  A
O1613     Zn2338   2.026   1_545  S
O1613      C1623   1.275       .  A
O1614      C1622   1.273       .  A
O1615     Zn2341   2.022   1_545  S
O1615      C1624   1.274       .  A
O1616      C1625   1.267       .  A
O1617      C1624   1.272       .  A
O1618      C1625   1.274       .  A
O1619      C1626   1.274       .  A
O1620      C1626   1.274       .  A
C1621      C2183   1.471       .  S
C1622      C2135   1.471       .  S
C1623      C1856   1.477       .  S
C1624      C1904   1.477       .  S
C1625      C2159   1.478       .  S
C1626      C1880   1.479       .  S
C1627      C1628   1.400       .  A
C1627      C1632   1.396       .  A
C1627      H1637   1.083       .  S
C1628      C1633   1.475       .  S
C1628      C1629   1.412       .  A
C1629      C1630   1.401       .  A
C1629      S1634   1.804       .  S
C1630      C1631   1.403       .  A
C1630      H1635   1.083       .  S
C1631      C1632   1.414       .  A
C1632      S2370   1.805   1_545  S
C1633      C1638   1.408       .  A
C1633      C1642   1.398       .  A
S1634      H1650   1.405       .  S
S1636      C2366   1.805       .  S
S1636      H1647   1.407       .  S
C1638      C1639   1.402       .  A
C1638      S1643   1.806       .  S
C1639      C1640   1.405       .  A
C1639      H1644   1.082       .  S
C1640      C1641   1.419       .  A
C1641      C1642   1.396       .  A
C1641      S1645   1.804       .  S
C1642      H1646   1.084       .  S
S1643      H1648   1.407       .  S
S1645      H1649   1.408       .  S
C1651      C1652   1.399       .  A
C1651      C1656   1.394       .  A
C1651      H1661   1.084       .  S
C1652      C1657   1.473       .  S
C1652      C1653   1.414       .  A
C1653      C1654   1.400       .  A
C1653      S1658   1.804       .  S
C1654      C1655   1.402       .  A
C1654      H1659   1.084       .  S
C1655      C1656   1.414       .  A
C1656      S1660   1.806       .  S
C1657      C1662   1.404       .  A
C1657      C1666   1.402       .  A
S1658      H1674   1.405       .  S
S1660      H1671   1.407       .  S
C1662      C1663   1.397       .  A
C1662      S1667   1.808       .  S
C1663      C1664   1.409       .  A
C1663      H1668   1.083       .  S
C1664      C1665   1.417       .  A
C1665      C1666   1.401       .  A
C1665      S1669   1.801       .  S
C1666      H1670   1.085       .  S
S1667      H1672   1.407       .  S
S1669      H1673   1.407       .  S
C1675      C1676   1.402       .  A
C1675      C1680   1.399       .  A
C1675      H1685   1.084       .  S
C1676      C1681   1.472       .  S
C1676      C1677   1.407       .  A
C1677      C1678   1.395       .  A
C1677      S1682   1.804       .  S
C1678      C1679   1.407       .  A
C1678      H1683   1.084       .  S
C1679      C1680   1.414       .  A
C1680      S1684   1.802       .  S
C1681      C1686   1.404       .  A
C1681      C1690   1.402       .  A
S1682      H1698   1.406       .  S
S1684      H1695   1.407       .  S
C1686      C1687   1.398       .  A
C1686      S1691   1.807       .  S
C1687      C1688   1.407       .  A
C1687      H1692   1.083   1_655  S
C1688      C1689   1.413       .  A
C1689      C1690   1.399       .  A
C1689      S1693   1.802       .  S
C1690      H1694   1.084       .  S
S1693      H1697   1.407       .  S
C1699      C1704   1.400   1_455  A
C1700      C1705   1.485       .  S
C1701      C1702   1.401       .  A
C1701      S1706   1.801       .  S
C1702      C1703   1.403       .  A
C1702      H1707   1.083       .  S
C1703      C1704   1.419       .  A
C1704      S1708   1.804       .  S
C1705      C1710   1.410       .  A
C1705      C1714   1.403       .  A
S1708      H1719   1.407       .  S
C1710      C1711   1.403       .  A
C1710      S1715   1.805       .  S
C1711      C1712   1.405       .  A
C1711      H1716   1.083       .  S
C1712      C1713   1.412       .  A
C1713      C1714   1.401       .  A
C1713      S1717   1.796       .  S
C1714      H1718   1.084       .  S
S1715      H1720   1.407       .  S
S1717      H1721   1.403       .  S
C1723      C1724   1.402       .  A
C1723      C1728   1.403       .  A
C1723      H1733   1.083       .  S
C1724      C1729   1.483       .  S
C1724      C1725   1.411       .  A
C1725      C1726   1.398       .  A
C1725      S1730   1.804       .  S
C1726      C1727   1.407       .  A
C1726      H1731   1.082       .  S
C1727      C1728   1.413       .  A
C1728      S1732   1.802       .  S
C1729      C2468   1.411       .  A
C1729      C2472   1.401       .  A
S1730      H2480   1.406       .  S
S1732      H1743   1.406       .  S
C1734      C2463   1.410   1_545  A
C1734      C1735   1.403       .  A
C1734      S1739   1.807       .  S
C1735      C1736   1.405       .  A
C1735      H1740   1.083       .  S
C1736      C1737   1.418       .  A
C1737      C1738   1.399       .  A
C1737      S1741   1.804       .  S
C1738      C2463   1.400   1_545  A
C1738      H2476   1.084   1_545  S
S1739      H1744   1.407       .  S
S1741      H1745   1.407       .  S
H1742      C2472   1.084       .  S
H1746      S2464   1.406   1_545  S
C1747      C1748   1.401       .  A
C1747      C1752   1.398       .  A
C1747      H1757   1.084       .  S
C1748      C1753   1.488       .  S
C1748      C1749   1.414       .  A
C1749      C1750   1.404       .  A
C1749      S1754   1.803       .  S
C1750      C1751   1.404       .  A
C1750      H1755   1.084       .  S
C1751      C1752   1.419       .  A
C1752      S1756   1.804       .  S
C1753      C1758   1.410       .  A
C1753      C1762   1.404       .  A
S1754      H1770   1.406       .  S
S1756      H1767   1.400       .  S
C1758      C1759   1.404       .  A
C1758      S1763   1.808       .  S
C1759      C1760   1.406       .  A
C1759      H1764   1.082       .  S
C1760      C1761   1.416       .  A
C1761      C1762   1.408       .  A
C1761      S1765   1.807       .  S
C1762      H1766   1.082       .  S
S1763      H1768   1.407       .  S
S1765      H1769   1.407       .  S
C1771      C2506   1.401   1_545  A
C1771      C1776   1.403       .  A
C1771      H2515   1.084   1_545  S
C1772      C1777   1.485       .  S
C1772      C2505   1.401       .  A
C1772      C2507   1.412       .  A
C1773      C2506   1.413   1_545  A
C1773      C1774   1.402       .  A
C1773      S1778   1.799       .  S
C1774      C1775   1.403       .  A
C1774      H1779   1.084       .  S
C1775      C1776   1.418       .  A
C1776      S1780   1.804       .  S
C1777      C1782   1.408       .  A
C1777      C1786   1.403       .  A
S1778      H2528   1.406   1_545  S
S1780      H1791   1.407       .  S
H1781      C2505   1.084       .  S
C1782      C1783   1.403       .  A
C1782      S1787   1.805       .  S
C1783      C1784   1.408       .  A
C1783      H1788   1.082       .  S
C1784      C1785   1.412       .  A
C1785      C1786   1.403       .  A
C1785      S1789   1.794       .  S
C1786      H1790   1.084       .  S
S1787      H1792   1.407       .  S
S1789      H1793   1.403       .  S
H1794      S2512   1.405       .  S
C1795      C1800   1.399       .  A
C1795      H1805   1.084   1_655  S
C1796      C1801   1.489       .  S
C1797      C1798   1.405       .  A
C1798      C1799   1.404       .  A
C1798      H1803   1.084       .  S
C1799      C1800   1.416       .  A
C1800      S1804   1.801       .  S
C1801      C1806   1.412       .  A
C1801      C1810   1.406       .  A
S1802      H1818   1.406       .  S
S1804      H1815   1.407       .  S
C1806      C1807   1.399       .  A
C1806      S1811   1.804       .  S
C1807      C1808   1.405       .  A
C1807      H1812   1.081       .  S
C1808      C1809   1.411       .  A
C1809      C1810   1.409       .  A
C1809      S1813   1.803       .  S
C1810      H1814   1.082       .  S
S1811      H1816   1.406       .  S
S1813      H1817   1.406       .  S
C1819      C1820   1.399       .  A
C1819      C1824   1.399       .  A
C1819      H1829   1.084       .  S
C1820      C1825   1.484       .  S
C1820      C1821   1.417       .  A
C1821      C1822   1.406       .  A
C1821      S1826   1.807       .  S
C1822      C1823   1.405       .  A
C1822      H1827   1.084       .  S
C1823      C1824   1.418       .  A
C1824      S1828   1.805       .  S
C1825      C1830   1.406       .  A
C1825      C1834   1.402       .  A
S1826      H1842   1.403       .  S
S1828      H1839   1.407       .  S
C1830      C1831   1.402       .  A
C1830      S1835   1.806       .  S
C1831      C1832   1.410       .  A
C1831      H1836   1.081       .  S
C1832      C1833   1.417       .  A
C1833      C1834   1.403       .  A
C1833      S1837   1.797       .  S
C1834      H1838   1.083       .  S
S1835      H1840   1.407       .  S
S1837      H1841   1.398       .  S
C1843      C1844   1.400       .  A
C1843      C1848   1.397       .  A
C1843      H1853   1.084       .  S
C1844      C1849   1.478       .  S
C1844      C1845   1.412       .  A
C1845      C1846   1.398       .  A
C1845      S1850   1.805       .  S
C1846      C1847   1.404       .  A
C1846      H1851   1.084       .  S
C1847      C1848   1.418       .  A
C1848      S1852   1.804       .  S
C1849      C1854   1.410       .  A
C1849      C1858   1.399       .  A
S1850      H1866   1.405       .  S
S1852      H1863   1.407       .  S
C1854      C1855   1.404       .  A
C1854      S1859   1.807       .  S
C1855      C1856   1.405       .  A
C1855      H1860   1.083       .  S
C1856      C1857   1.416       .  A
C1857      C1858   1.396       .  A
C1857      S1861   1.805       .  S
C1858      H1862   1.084       .  S
S1859      H1864   1.407       .  S
S1861      H1865   1.407       .  S
C1867      C1868   1.401       .  A
C1867      C1872   1.398       .  A
C1867      H1877   1.084       .  S
C1868      C1873   1.477       .  S
C1868      C1869   1.410       .  A
C1869      C1870   1.400       .  A
C1869      S1874   1.804       .  S
C1870      C1871   1.406       .  A
C1870      H1875   1.084       .  S
C1871      C1872   1.414       .  A
C1872      S1876   1.799       .  S
C1873      C1878   1.407       .  A
C1873      C1882   1.400       .  A
S1874      H1890   1.405       .  S
S1876      H1887   1.407       .  S
C1878      C1879   1.402       .  A
C1878      S1883   1.806       .  S
C1879      C1880   1.406       .  A
C1879      H1884   1.083       .  S
C1880      C1881   1.416       .  A
C1881      C1882   1.399       .  A
C1881      S1885   1.804       .  S
C1882      H1886   1.084       .  S
S1883      H1888   1.407       .  S
S1885      H1889   1.407       .  S
C1891      C1892   1.401       .  A
C1891      C1896   1.398       .  A
C1891      H1901   1.084       .  S
C1892      C1897   1.482       .  S
C1892      C1893   1.411       .  A
C1893      C1894   1.399       .  A
C1893      S1898   1.805       .  S
C1894      C1895   1.408       .  A
C1894      H1899   1.084       .  S
C1895      C1896   1.419       .  A
C1896      S1900   1.800       .  S
C1897      C1902   1.410       .  A
C1897      C1906   1.404       .  A
S1898      H1914   1.406       .  S
S1900      H1911   1.408       .  S
C1902      C1903   1.400       .  A
C1902      S1907   1.807       .  S
C1903      C1904   1.405       .  A
C1903      H1908   1.083   1_655  S
C1904      C1905   1.413       .  A
C1905      C1906   1.400       .  A
C1905      S1909   1.803       .  S
C1906      H1910   1.084       .  S
S1907      H1912   1.407   1_655  S
S1909      H1913   1.407       .  S
C1915      C1916   1.402       .  A
C1915      C1920   1.399       .  A
C1915      H1925   1.084       .  S
C1916      C1921   1.480       .  S
C1916      C1917   1.411       .  A
C1917      C1918   1.398       .  A
C1917      S1922   1.804       .  S
C1918      C1919   1.405       .  A
C1918      H1923   1.084       .  S
C1919      C1920   1.418       .  A
C1920      S1924   1.803       .  S
C1921      C1926   1.409       .  A
C1921      C1930   1.401       .  A
S1922      H1938   1.406       .  S
S1924      H1935   1.408       .  S
C1926      C1927   1.403       .  A
C1926      S1931   1.807       .  S
C1927      C1928   1.407       .  A
C1927      H1932   1.082       .  S
C1928      C1929   1.416       .  A
C1929      C1930   1.398       .  A
C1929      S1933   1.801       .  S
C1930      H1934   1.084       .  S
S1931      H1936   1.407       .  S
S1933      H1937   1.407       .  S
C1939      C1940   1.402       .  A
C1939      C1944   1.401       .  A
C1939      H1949   1.084       .  S
C1940      C1945   1.477       .  S
C1940      C1941   1.411       .  A
C1941      C1942   1.396       .  A
C1941      S1946   1.805       .  S
C1942      C1943   1.404       .  A
C1942      H1947   1.084       .  S
C1943      C1944   1.417       .  A
C1944      S1948   1.804       .  S
C1945      C1950   1.408       .  A
C1945      C1954   1.402       .  A
S1946      H1962   1.406       .  S
S1948      H1959   1.407       .  S
C1950      C1951   1.401       .  A
C1950      S1955   1.808       .  S
C1951      C1952   1.405       .  A
C1951      H1956   1.083       .  S
C1952      C1953   1.414       .  A
C1953      C1954   1.400       .  A
C1953      S1957   1.803       .  S
C1954      H1958   1.084       .  S
S1955      H1960   1.407       .  S
S1957      H1961   1.407       .  S
C1963      C1964   1.400       .  A
C1963      C1968   1.397       .  A
C1963      H1973   1.084       .  S
C1964      C1969   1.474       .  S
C1964      C1965   1.411       .  A
C1965      C1966   1.398       .  A
C1965      S1970   1.804       .  S
C1966      C1967   1.404       .  A
C1966      H1971   1.084       .  S
C1967      C1968   1.417       .  A
C1968      S1972   1.804       .  S
C1969      C1974   1.407       .  A
C1969      C1978   1.399       .  A
S1970      H1986   1.405       .  S
S1972      H1983   1.408       .  S
C1974      C1975   1.403       .  A
C1974      S1979   1.806       .  S
C1975      C1976   1.407       .  A
C1975      H1980   1.082       .  S
C1976      C1977   1.414       .  A
C1977      C1978   1.396       .  A
C1977      S1981   1.799       .  S
C1978      H1982   1.084       .  S
S1979      H1984   1.407       .  S
S1981      H1985   1.407       .  S
C1987      C1992   1.397       .  A
C1988      C1993   1.484       .  S
C1989      C1990   1.404       .  A
C1989      S1994   1.804       .  S
C1990      C1991   1.404       .  A
C1990      H1995   1.084       .  S
C1991      C1992   1.414       .  A
C1992      S1996   1.803       .  S
C1993      C1998   1.407       .  A
C1993      C2002   1.405       .  A
S1996      H2007   1.407       .  S
C1998      C1999   1.398       .  A
C1998      S2003   1.808       .  S
C1999      C2000   1.407       .  A
C1999      H2004   1.081       .  S
C2000      C2001   1.412       .  A
C2001      C2002   1.409       .  A
C2001      S2005   1.805       .  S
C2002      H2006   1.083       .  S
S2003      H2008   1.407       .  S
S2005      H2009   1.406       .  S
C2011      C2012   1.403       .  A
C2011      C2016   1.404       .  A
C2011      H2021   1.084       .  S
C2012      C2017   1.483       .  S
C2012      C2013   1.410       .  A
C2013      C2014   1.398       .  A
C2013      S2018   1.805       .  S
C2014      C2015   1.408       .  A
C2014      H2019   1.082       .  S
C2015      C2016   1.415       .  A
C2016      S2020   1.798       .  S
C2017      C2756   1.410   1_545  A
C2017      C2760   1.398       .  A
S2018      H2768   1.403   1_545  S
S2020      H2031   1.399       .  S
C2022      C2751   1.411       .  A
C2022      C2023   1.411       .  A
C2022      S2761   1.807       .  S
C2023      C2024   1.409       .  A
C2023      H2028   1.082       .  S
C2024      C2025   1.422       .  A
C2025      C2026   1.398       .  A
C2025      S2029   1.800       .  S
C2026      C2751   1.397       .  A
C2026      H2764   1.084       .  S
S2027      C2756   1.806       .  S
S2027      H2766   1.407       .  S
S2029      H2033   1.407       .  S
H2030      C2760   1.084       .  S
H2032      S2761   1.407       .  S
H2034      S2752   1.405       .  S
C2035      C2036   1.406       .  A
C2035      C2040   1.409       .  A
C2035      H2045   1.083       .  S
C2036      C2041   1.485       .  S
C2036      C2037   1.410       .  A
C2037      C2038   1.397       .  A
C2037      S2042   1.804       .  S
C2038      C2039   1.406       .  A
C2038      H2043   1.082       .  S
C2039      C2040   1.411       .  A
C2040      S2044   1.805       .  S
C2041      C2046   1.411       .  A
C2041      C2050   1.398       .  A
S2042      H2058   1.404       .  S
S2044      H2055   1.406       .  S
C2046      C2047   1.410       .  A
C2046      S2051   1.806       .  S
C2047      C2048   1.407       .  A
C2047      H2052   1.083       .  S
C2048      C2049   1.418       .  A
C2049      C2050   1.399       .  A
C2049      S2053   1.804       .  S
C2050      H2054   1.084       .  S
S2051      H2056   1.407       .  S
S2053      H2057   1.407       .  S
C2059      C2060   1.401       .  A
C2059      C2064   1.396       .  A
C2059      H2069   1.084       .  S
C2060      C2065   1.481       .  S
C2060      C2061   1.413       .  A
C2061      C2062   1.400       .  A
C2061      S2066   1.804       .  S
C2062      C2063   1.402       .  A
C2062      H2067   1.083       .  S
C2063      C2064   1.415       .  A
C2064      S2068   1.803       .  S
C2065      C2070   1.409   1_655  A
S2066      H2082   1.406       .  S
S2068      H2079   1.400       .  S
C2070      S2075   1.808   1_455  S
C2071      C2072   1.406       .  A
C2071      H2076   1.082       .  S
C2072      C2073   1.414       .  A
C2073      C2074   1.401       .  A
C2073      S2077   1.803       .  S
C2074      H2078   1.083       .  S
S2075      H2080   1.407       .  S
S2077      H2081   1.407       .  S
C2083      C2818   1.404       .  A
C2083      C2088   1.401       .  A
C2083      H2093   1.084       .  S
C2084      C2089   1.482       .  S
C2084      C2817   1.404   1_545  A
C2084      C2819   1.412   1_545  A
C2085      C2818   1.412       .  A
C2085      C2086   1.398       .  A
C2085      S2824   1.804       .  S
C2086      C2087   1.405       .  A
C2086      H2091   1.084       .  S
C2087      C2088   1.415       .  A
C2088      S2092   1.803       .  S
C2089      C2094   1.411       .  A
C2089      C2098   1.401       .  A
S2090      C2819   1.804   1_545  S
S2090      H2106   1.406       .  S
S2092      H2103   1.407       .  S
C2094      C2095   1.403       .  A
C2094      S2099   1.806       .  S
C2095      C2096   1.402       .  A
C2095      H2100   1.082       .  S
C2096      C2097   1.414       .  A
C2097      C2098   1.397       .  A
C2097      S2101   1.802       .  S
C2098      H2102   1.084       .  S
S2099      H2104   1.407       .  S
S2101      H2105   1.401       .  S
C2107      C2108   1.401       .  A
C2107      C2112   1.395       .  A
C2107      H2117   1.084       .  S
C2108      C2113   1.479       .  S
C2108      C2109   1.413       .  A
C2109      C2110   1.400       .  A
C2109      S2114   1.803       .  S
C2110      C2111   1.403       .  A
C2110      H2115   1.083       .  S
C2111      C2112   1.414       .  A
C2112      S2116   1.804       .  S
C2113      C2118   1.409       .  A
C2113      C2122   1.403       .  A
S2114      H2130   1.406       .  S
S2116      H2127   1.400       .  S
C2118      C2119   1.400       .  A
C2118      S2123   1.808       .  S
C2119      C2120   1.404       .  A
C2119      H2124   1.083       .  S
C2120      C2121   1.415       .  A
C2121      C2122   1.400       .  A
C2121      S2125   1.803       .  S
C2122      H2126   1.084       .  S
S2123      H2128   1.407       .  S
S2125      H2129   1.407       .  S
C2131      C2132   1.398       .  A
C2131      C2136   1.394       .  A
C2131      H2141   1.084       .  S
C2132      C2137   1.472       .  S
C2132      C2133   1.413       .  A
C2133      C2134   1.399       .  A
C2133      S2138   1.805       .  S
C2134      C2135   1.402       .  A
C2134      H2139   1.084       .  S
C2135      C2136   1.416       .  A
C2137      C2142   1.406       .  A
C2137      C2146   1.402       .  A
S2138      H2154   1.405       .  S
S2140      H2151   1.407       .  S
C2142      C2143   1.397       .  A
C2142      S2147   1.808       .  S
C2143      C2144   1.406       .  A
C2143      H2148   1.083       .  S
C2144      C2145   1.414       .  A
C2145      C2146   1.399       .  A
C2145      S2149   1.803       .  S
C2146      H2150   1.084       .  S
S2147      H2152   1.407       .  S
S2149      H2153   1.407       .  S
C2155      C2156   1.402       .  A
C2155      C2160   1.398       .  A
C2155      H2165   1.084       .  S
C2156      C2161   1.472       .  S
C2156      C2157   1.408       .  A
C2157      C2158   1.395       .  A
C2157      S2162   1.805       .  S
C2158      C2159   1.408       .  A
C2158      H2163   1.084       .  S
C2159      C2160   1.414       .  A
C2160      S2164   1.802       .  S
C2161      C2166   1.407       .  A
C2161      C2170   1.402       .  A
S2162      H2178   1.406       .  S
S2164      H2175   1.408       .  S
C2166      C2167   1.399       .  A
C2166      S2171   1.807       .  S
C2167      C2168   1.405       .  A
C2167      H2172   1.083       .  S
C2168      C2169   1.413       .  A
C2169      C2170   1.398       .  A
C2169      S2173   1.803       .  S
C2170      H2174   1.084       .  S
S2171      H2176   1.407       .  S
S2173      H2177   1.407       .  S
C2179      C2180   1.397       .  A
C2179      C2184   1.393       .  A
C2179      H2189   1.084       .  S
C2180      C2185   1.469       .  S
C2180      C2181   1.412       .  A
C2181      C2182   1.400       .  A
C2181      S2186   1.804       .  S
C2182      C2183   1.403       .  A
C2182      H2187   1.083       .  S
C2183      C2184   1.416       .  A
C2185      C2190   1.409       .  A
C2185      C2194   1.397       .  A
S2186      H2202   1.405       .  S
S2188      H2199   1.407       .  S
C2190      C2191   1.401       .  A
C2190      S2195   1.806       .  S
C2191      C2192   1.403       .  A
C2191      H2196   1.083       .  S
C2192      C2193   1.416       .  A
C2193      C2194   1.393       .  A
C2193      S2197   1.806       .  S
C2194      H2198   1.084       .  S
S2195      H2200   1.407       .  S
S2197      H2201   1.407       .  S
Zn2203     O2207   1.960       .  S
Zn2203     O2208   2.027       .  S
Zn2203     O2212   2.020       .  S
Zn2203     O2219   2.009       .  S
Zn2204     O2207   1.935       .  S
Zn2204     O2209   1.966       .  S
Zn2204     O2211   1.970       .  S
Zn2204     O2215   1.979       .  S
Zn2205     O2207   1.959       .  S
Zn2205     O2210   2.014       .  S
Zn2205     O2213   2.025       .  S
Zn2205     O2216   2.020       .  S
Zn2206     O2207   1.958       .  S
Zn2206     O2214   2.019       .  S
Zn2206     O2217   2.028       .  S
Zn2206     O2218   2.018       .  S
O2208      C2220   1.273       .  A
O2209      C2221   1.267       .  A
O2210      C2222   1.274       .  A
O2211      C2220   1.268       .  A
O2212      C2222   1.274       .  A
O2213      C2221   1.273       .  A
O2214      C2223   1.275       .  A
O2215      C2224   1.268       .  A
O2216      C2223   1.275       .  A
O2217      C2224   1.273       .  A
O2218      C2225   1.274       .  A
O2219      C2225   1.274       .  A
C2220      C2878   1.474       .  S
C2221      C2926   1.468       .  S
C2222      C2806   1.481       .  S
C2223      C2821   1.481       .  S
C2224      C2902   1.472       .  S
C2225      C2854   1.477       .  S
C2226      H2227   1.112       .  S
C2226      C2232   1.530       .  S
C2226      C2231   1.531       .  S
C2226      C2230   1.533       .  S
C2228      H2229   1.109       .  S
C2228      C2234   1.547       .  S
C2228      C2233   1.548       .  S
C2228      C2235   1.547       .  S
C2230      C2233   1.378       .  D
C2230      C2830   1.485       .  S
C2231      C2234   1.377       .  D
C2231      C2797   1.488       .  S
C2232      C2235   1.376       .  D
C2232      C2845   1.483       .  S
C2233      C2749   1.501       .  S
C2234      C2734   1.495       .  S
C2235      C2773   1.497       .  S
Zn2236     O2240   1.955       .  S
Zn2236     O2241   2.014       .  S
Zn2236     O2245   2.006       .  S
Zn2236     O2252   2.001       .  S
Zn2237     O2240   1.958       .  S
Zn2237     O2242   2.008       .  S
Zn2237     O2244   2.009       .  S
Zn2237     O2248   1.996       .  S
Zn2238     O2240   1.960       .  S
Zn2238     O2243   2.014       .  S
Zn2238     O2246   2.014       .  S
Zn2238     O2249   2.010       .  S
Zn2239     O2240   1.979       .  S
Zn2239     O2247   2.059       .  S
Zn2239     O2250   2.055       .  S
Zn2239     O2251   2.064       .  S
O2241      C2253   1.272       .  A
O2242      C2254   1.272       .  A
O2243      C2255   1.272       .  A
O2244      C2253   1.271       .  A
O2245      C2255   1.272       .  A
O2246      C2254   1.272       .  A
O2247      C2256   1.279       .  A
O2248      C2257   1.272       .  A
O2249      C2256   1.274       .  A
O2250      C2257   1.278       .  A
O2251      C2258   1.280       .  A
O2252      C2258   1.273       .  A
C2253      C2662   1.482       .  S
C2254      C2710   1.483       .  S
C2255      C2677   1.478       .  S
C2256      C2758   1.489       .  S
C2257      C2725   1.476       .  S
C2258      C2782   1.487       .  S
Zn2259     O2263   1.980       .  S
Zn2259     O2264   2.056       .  S
Zn2259     O2268   2.065       .  S
Zn2259     O2275   2.070       .  S
Zn2260     O2263   1.964       .  S
Zn2260     O2265   2.010       .  S
Zn2260     O2267   2.005       .  S
Zn2260     O2271   2.018       .  S
Zn2261     O2263   1.955       .  S
Zn2261     O2266   2.007       .  S
Zn2261     O2269   2.012       .  S
Zn2261     O2272   2.021       .  S
Zn2262     O2263   1.951       .  S
Zn2262     O2270   2.012       .  S
Zn2262     O2273   1.991       .  S
Zn2262     O2274   1.992       .  S
O2264      C2276   1.279       .  A
O2265      C2277   1.272       .  A
O2266      C2278   1.274       .  A
O2267      C2276   1.273       .  A
O2268      C2278   1.280       .  A
O2269      C2277   1.271       .  A
O2270      C2279   1.272       .  A
O2271      C2280   1.273       .  A
O2272      C2279   1.273       .  A
O2273      C2280   1.269       .  A
O2274      C2281   1.272       .  A
O2275      C2281   1.280       .  A
C2276      C2509   1.485       .  S
C2277      C2629   1.486       .  S
C2278      C2533   1.487       .  S
C2279      C2605   1.481       .  S
C2280      C2581   1.478       .  S
C2281      C2557   1.488       .  S
C2282      H2283   1.110       .  S
C2282      C2288   1.539       .  S
C2282      C2287   1.541       .  S
C2282      C2286   1.538       .  S
C2284      H2285   1.109       .  S
C2284      C2290   1.550       .  S
C2284      C2289   1.545       .  S
C2284      C2291   1.552       .  S
C2286      C2289   1.372       .  D
C2286      C2446   1.490       .  S
C2287      C2290   1.380       .  D
C2287      C2485   1.495       .  S
C2288      C2291   1.379       .  D
C2288      C2461   1.498       .  S
C2289      C2542   1.497       .  S
C2290      C2566   1.504       .  S
C2291      C2518   1.500       .  S
Zn2292     O2296   1.960       .  S
Zn2292     O2297   2.014       .  S
Zn2292     O2301   2.030       .  S
Zn2292     O2308   2.033       .  S
Zn2293     O2296   1.962       .  S
Zn2293     O2298   2.029       .  S
Zn2293     O2300   2.024       .  S
Zn2293     O2304   2.011       .  S
Zn2294     O2296   1.942       .  S
Zn2294     O2299   1.984       .  S
Zn2294     O2302   1.978       .  S
Zn2294     O2305   1.969       .  S
Zn2295     O2296   1.966       .  S
Zn2295     O2303   2.034       .  S
Zn2295     O2306   2.042       .  S
Zn2295     O2307   2.039       .  S
O2297      C2309   1.274       .  A
O2298      C2310   1.273       .  A
O2299      C2311   1.269       .  A
O2300      C2309   1.276       .  A
O2301      C2311   1.274       .  A
O2302      C2310   1.268       .  A
O2303      C2312   1.274       .  A
O2304      C2313   1.274       .  A
O2305      C2312   1.267       .  A
O2306      C2313   1.278       .  A
O2307      C2314   1.278       .  A
O2308      C2314   1.276       .  A
C2309      C2470   1.483       .  S
C2310      C2413   1.477       .  S
C2311      C2374   1.480       .  S
C2312      C2389   1.468       .  S
C2313      C2437   1.485       .  S
C2314      C2494   1.490       .  S
Zn2315     O2319   1.928   1_554  S
Zn2315     O2324   1.981       .  S
Zn2316     O2323   2.031       .  S
Zn2317     O2319   1.962       .  S
Zn2317     O2322   2.034       .  S
Zn2317     O2325   2.007       .  S
Zn2318     O2329   2.013       .  S
Zn2318     O2330   2.039       .  S
O2320      C2332   1.269       .  A
O2321      C2333   1.274       .  A
O2322      C2334   1.274   1_556  A
O2323      C2332   1.274   1_556  A
O2324      C2334   1.268       .  A
O2325      C2333   1.272       .  A
O2326      C2335   1.272       .  A
O2327      C2336   1.273       .  A
O2328      C2335   1.274       .  A
O2329      C2336   1.274       .  A
O2330      C2337   1.275   1_556  A
O2331      C2337   1.269       .  A
C2332      C2422   1.474       .  S
C2333      C2653   1.481       .  S
C2334      C2365   1.472       .  S
C2335      C2701   1.473       .  S
C2336      C2686   1.477       .  S
C2337      C2398   1.484       .  S
Zn2338     O2343   2.039       .  S
Zn2339     O2342   1.927       .  S
Zn2339     O2344   1.970       .  S
Zn2340     O2342   1.956       .  S
Zn2340     O2345   2.000       .  S
Zn2340     O2348   2.025       .  S
Zn2341     O2352   2.031       .  S
Zn2341     O2353   2.020       .  S
O2343      C2355   1.275       .  A
O2344      C2356   1.267       .  A
O2345      C2357   1.272       .  A
O2346      C2355   1.267       .  A
O2347      C2357   1.275       .  A
O2348      C2356   1.273       .  A
O2349      C2358   1.274       .  A
O2350      C2359   1.268       .  A
O2351      C2358   1.272       .  A
O2352      C2359   1.274       .  A
O2353      C2360   1.274       .  A
O2354      C2360   1.274       .  A
C2355      C2917   1.472       .  S
C2356      C2869   1.470       .  S
C2357      C2590   1.475       .  S
C2358      C2638   1.477       .  S
C2359      C2893   1.479       .  S
C2360      C2614   1.480       .  S
C2361      C2362   1.400       .  A
C2361      C2366   1.396       .  A
C2361      H2371   1.083       .  S
C2362      C2367   1.475       .  S
C2362      C2363   1.412       .  A
C2363      C2364   1.401       .  A
C2363      S2368   1.804       .  S
C2364      C2365   1.403       .  A
C2364      H2369   1.083       .  S
C2365      C2366   1.414       .  A
C2367      C2372   1.408       .  A
C2367      C2376   1.398       .  A
S2368      H2384   1.405       .  S
S2370      H2381   1.407       .  S
C2372      C2373   1.402       .  A
C2372      S2377   1.806       .  S
C2373      C2374   1.405       .  A
C2373      H2378   1.082       .  S
C2374      C2375   1.418       .  A
C2375      C2376   1.397       .  A
C2375      S2379   1.804       .  S
C2376      H2380   1.084       .  S
S2377      H2382   1.407       .  S
S2379      H2383   1.408       .  S
C2385      C2386   1.399       .  A
C2385      C2390   1.394       .  A
C2385      H2395   1.084       .  S
C2386      C2391   1.473       .  S
C2386      C2387   1.413       .  A
C2387      C2388   1.400       .  A
C2387      S2392   1.804       .  S
C2388      C2389   1.402       .  A
C2388      H2393   1.084       .  S
C2389      C2390   1.414       .  A
C2390      S2394   1.806       .  S
C2391      C2396   1.404       .  A
C2391      C2400   1.402       .  A
S2392      H2408   1.405       .  S
S2394      H2405   1.407       .  S
C2396      C2397   1.397       .  A
C2396      S2401   1.808       .  S
C2397      C2398   1.409       .  A
C2397      H2402   1.083       .  S
C2398      C2399   1.416       .  A
C2399      C2400   1.401       .  A
C2399      S2403   1.801       .  S
C2400      H2404   1.084       .  S
S2401      H2406   1.407       .  S
S2403      H2407   1.407       .  S
C2409      C2410   1.402       .  A
C2409      C2414   1.398       .  A
C2409      H2419   1.084       .  S
C2410      C2415   1.472       .  S
C2410      C2411   1.407       .  A
C2411      C2412   1.396       .  A
C2411      S2416   1.804       .  S
C2412      C2413   1.407       .  A
C2412      H2417   1.084       .  S
C2413      C2414   1.414       .  A
C2414      S2418   1.802       .  S
C2415      C2420   1.404       .  A
C2415      C2424   1.402       .  A
S2416      H2432   1.406       .  S
S2418      H2429   1.407       .  S
C2420      C2421   1.398       .  A
C2420      S2425   1.807       .  S
C2421      C2422   1.407       .  A
C2421      H2426   1.083   1_655  S
C2422      C2423   1.413       .  A
C2423      C2424   1.399       .  A
C2423      S2427   1.802       .  S
C2424      H2428   1.084       .  S
S2427      H2431   1.407       .  S
C2433      C2438   1.400       .  A
C2434      C2439   1.487       .  S
C2435      C2436   1.402       .  A
C2435      S2440   1.802       .  S
C2436      C2437   1.404       .  A
C2436      H2441   1.083       .  S
C2437      C2438   1.419       .  A
C2438      S2442   1.804       .  S
C2439      C2444   1.410       .  A
C2439      C2448   1.404       .  A
S2442      H2453   1.407       .  S
C2444      C2445   1.403       .  A
C2444      S2449   1.806       .  S
C2445      C2446   1.404       .  A
C2445      H2450   1.083       .  S
C2446      C2447   1.412       .  A
C2447      C2448   1.401       .  A
C2447      S2451   1.797       .  S
C2448      H2452   1.084       .  S
S2449      H2454   1.407       .  S
S2451      H2455   1.403       .  S
C2457      C2458   1.401       .  A
C2457      C2462   1.404       .  A
C2457      H2467   1.083       .  S
C2458      C2463   1.482       .  S
C2458      C2459   1.410       .  A
C2459      C2460   1.399       .  A
C2459      S2464   1.803       .  S
C2460      C2461   1.407       .  A
C2460      H2465   1.083       .  S
C2461      C2462   1.414       .  A
C2462      S2466   1.802       .  S
S2466      H2477   1.406       .  S
C2468      C2469   1.403       .  A
C2468      S2473   1.807       .  S
C2469      C2470   1.405       .  A
C2469      H2474   1.083       .  S
C2470      C2471   1.418       .  A
C2471      C2472   1.399       .  A
C2471      S2475   1.804       .  S
S2473      H2478   1.407       .  S
S2475      H2479   1.407       .  S
C2481      C2482   1.402       .  A
C2481      C2486   1.399       .  A
C2481      H2491   1.084       .  S
C2482      C2487   1.490       .  S
C2482      C2483   1.415       .  A
C2483      C2484   1.404       .  A
C2483      S2488   1.803       .  S
C2484      C2485   1.404       .  A
C2484      H2489   1.084       .  S
C2485      C2486   1.418       .  A
C2486      S2490   1.804       .  S
C2487      C2492   1.411       .  A
C2487      C2496   1.404       .  A
S2488      H2504   1.405       .  S
S2490      H2501   1.401       .  S
C2492      C2493   1.404       .  A
C2492      S2497   1.808       .  S
C2493      C2494   1.406       .  A
C2493      H2498   1.082       .  S
C2494      C2495   1.416       .  A
C2495      C2496   1.408       .  A
C2495      S2499   1.807       .  S
C2496      H2500   1.082       .  S
S2497      H2502   1.407       .  S
S2499      H2503   1.407       .  S
C2505      C2510   1.402       .  A
C2506      C2511   1.487       .  S
C2507      C2508   1.401       .  A
C2507      S2512   1.799       .  S
C2508      C2509   1.403       .  A
C2508      H2513   1.084       .  S
C2509      C2510   1.419       .  A
C2510      S2514   1.804       .  S
C2511      C2516   1.409       .  A
C2511      C2520   1.403       .  A
S2514      H2525   1.407       .  S
C2516      C2517   1.404       .  A
C2516      S2521   1.805       .  S
C2517      C2518   1.408       .  A
C2517      H2522   1.082       .  S
C2518      C2519   1.413       .  A
C2519      C2520   1.403       .  A
C2519      S2523   1.794       .  S
C2520      H2524   1.084       .  S
S2521      H2526   1.407       .  S
S2523      H2527   1.403       .  S
C2529      C2534   1.399       .  A
C2529      H2539   1.084   1_655  S
C2530      C2535   1.490       .  S
C2531      C2532   1.406       .  A
C2532      C2533   1.405       .  A
C2532      H2537   1.084       .  S
C2533      C2534   1.416       .  A
C2534      S2538   1.799       .  S
C2535      C2540   1.412       .  A
C2535      C2544   1.406       .  A
S2536      H2552   1.406       .  S
S2538      H2549   1.407       .  S
C2540      C2541   1.399       .  A
C2540      S2545   1.804       .  S
C2541      C2542   1.405       .  A
C2541      H2546   1.082       .  S
C2542      C2543   1.411       .  A
C2543      C2544   1.409       .  A
C2543      S2547   1.803       .  S
C2544      H2548   1.082       .  S
S2545      H2550   1.406       .  S
S2547      H2551   1.406       .  S
C2553      C2554   1.399       .  A
C2553      C2558   1.399       .  A
C2553      H2563   1.084       .  S
C2554      C2559   1.484       .  S
C2554      C2555   1.416       .  A
C2555      C2556   1.406       .  A
C2555      S2560   1.806       .  S
C2556      C2557   1.405       .  A
C2556      H2561   1.084       .  S
C2557      C2558   1.419       .  A
C2558      S2562   1.805       .  S
C2559      C2564   1.406       .  A
C2559      C2568   1.403       .  A
S2560      H2576   1.405       .  S
S2562      H2573   1.407       .  S
C2564      C2565   1.402       .  A
C2564      S2569   1.805       .  S
C2565      C2566   1.410       .  A
C2565      H2570   1.081       .  S
C2566      C2567   1.417       .  A
C2567      C2568   1.403       .  A
C2567      S2571   1.797       .  S
C2568      H2572   1.084       .  S
S2569      H2574   1.408       .  S
S2571      H2575   1.399       .  S
C2577      C2578   1.400       .  A
C2577      C2582   1.396       .  A
C2577      H2587   1.084       .  S
C2578      C2583   1.477       .  S
C2578      C2579   1.412       .  A
C2579      C2580   1.399       .  A
C2579      S2584   1.805       .  S
C2580      C2581   1.405       .  A
C2580      H2585   1.084       .  S
C2581      C2582   1.418       .  A
C2582      S2586   1.804       .  S
C2583      C2588   1.410       .  A
C2583      C2592   1.399       .  A
S2584      H2600   1.405       .  S
S2586      H2597   1.407       .  S
C2588      C2589   1.403       .  A
C2588      S2593   1.807       .  S
C2589      C2590   1.404       .  A
C2589      H2594   1.083       .  S
C2590      C2591   1.416       .  A
C2591      C2592   1.396       .  A
C2591      S2595   1.805       .  S
C2592      H2596   1.084       .  S
S2593      H2598   1.407       .  S
S2595      H2599   1.407       .  S
C2601      C2602   1.401       .  A
C2601      C2606   1.398       .  A
C2601      H2611   1.084       .  S
C2602      C2607   1.478       .  S
C2602      C2603   1.410       .  A
C2603      C2604   1.400       .  A
C2603      S2608   1.804       .  S
C2604      C2605   1.406       .  A
C2604      H2609   1.084       .  S
C2605      C2606   1.414       .  A
C2606      S2610   1.798       .  S
C2607      C2612   1.408       .  A
C2607      C2616   1.401       .  A
S2608      H2624   1.405       .  S
S2610      H2621   1.407       .  S
C2612      C2613   1.402       .  A
C2612      S2617   1.806       .  S
C2613      C2614   1.406       .  A
C2613      H2618   1.083       .  S
C2614      C2615   1.416       .  A
C2615      C2616   1.399       .  A
C2615      S2619   1.803       .  S
C2616      H2620   1.084       .  S
S2617      H2622   1.407       .  S
S2619      H2623   1.407       .  S
C2625      C2626   1.401       .  A
C2625      C2630   1.398       .  A
C2625      H2635   1.084       .  S
C2626      C2631   1.481       .  S
C2626      C2627   1.412       .  A
C2627      C2628   1.399       .  A
C2627      S2632   1.805       .  S
C2628      C2629   1.408       .  A
C2628      H2633   1.084       .  S
C2629      C2630   1.418       .  A
C2630      S2634   1.800       .  S
C2631      C2636   1.410       .  A
C2631      C2640   1.404       .  A
S2632      H2648   1.406       .  S
S2634      H2645   1.408       .  S
C2636      C2637   1.399       .  A
C2636      S2641   1.807       .  S
C2637      C2638   1.404       .  A
C2637      H2642   1.084   1_655  S
C2638      C2639   1.414       .  A
C2639      C2640   1.400       .  A
C2639      S2643   1.803       .  S
C2640      H2644   1.084       .  S
S2641      H2646   1.407   1_655  S
S2643      H2647   1.407       .  S
C2649      C2650   1.401       .  A
C2649      C2654   1.398       .  A
C2649      H2659   1.084       .  S
C2650      C2655   1.478       .  S
C2650      C2651   1.411       .  A
C2651      C2652   1.398       .  A
C2651      S2656   1.804       .  S
C2652      C2653   1.405       .  A
C2652      H2657   1.084       .  S
C2653      C2654   1.418       .  A
C2654      S2658   1.804       .  S
C2655      C2660   1.408       .  A
C2655      C2664   1.401       .  A
S2656      H2672   1.406       .  S
S2658      H2669   1.408       .  S
C2660      C2661   1.402       .  A
C2660      S2665   1.807       .  S
C2661      C2662   1.407       .  A
C2661      H2666   1.082       .  S
C2662      C2663   1.416       .  A
C2663      C2664   1.398       .  A
C2663      S2667   1.801       .  S
C2664      H2668   1.084       .  S
S2665      H2670   1.407       .  S
S2667      H2671   1.407       .  S
C2673      C2674   1.402       .  A
C2673      C2678   1.401       .  A
C2673      H2683   1.084       .  S
C2674      C2679   1.477       .  S
C2674      C2675   1.411       .  A
C2675      C2676   1.396       .  A
C2675      S2680   1.805       .  S
C2676      C2677   1.404       .  A
C2676      H2681   1.084       .  S
C2677      C2678   1.416       .  A
C2678      S2682   1.803       .  S
C2679      C2684   1.409       .  A
C2679      C2688   1.401       .  A
S2680      H2696   1.406       .  S
S2682      H2693   1.407       .  S
C2684      C2685   1.401       .  A
C2684      S2689   1.808       .  S
C2685      C2686   1.405       .  A
C2685      H2690   1.083       .  S
C2686      C2687   1.415       .  A
C2687      C2688   1.399       .  A
C2687      S2691   1.803       .  S
C2688      H2692   1.084       .  S
S2689      H2694   1.407       .  S
S2691      H2695   1.407       .  S
C2697      C2698   1.400       .  A
C2697      C2702   1.397       .  A
C2697      H2707   1.084       .  S
C2698      C2703   1.474       .  S
C2698      C2699   1.411       .  A
C2699      C2700   1.398       .  A
C2699      S2704   1.804       .  S
C2700      C2701   1.403       .  A
C2700      H2705   1.084       .  S
C2701      C2702   1.416       .  A
C2702      S2706   1.805       .  S
C2703      C2708   1.406       .  A
C2703      C2712   1.399       .  A
S2704      H2720   1.406       .  S
S2706      H2717   1.407       .  S
C2708      C2709   1.402       .  A
C2708      S2713   1.807       .  S
C2709      C2710   1.409       .  A
C2709      H2714   1.082       .  S
C2710      C2711   1.416       .  A
C2711      C2712   1.396       .  A
C2711      S2715   1.800       .  S
C2712      H2716   1.084       .  S
S2713      H2718   1.407       .  S
S2715      H2719   1.407       .  S
C2721      C2726   1.397       .  A
C2722      C2727   1.483       .  S
C2723      C2724   1.404       .  A
C2723      S2728   1.804       .  S
C2724      C2725   1.404       .  A
C2724      H2729   1.084       .  S
C2725      C2726   1.413       .  A
C2726      S2730   1.803       .  S
C2727      C2732   1.407       .  A
C2727      C2736   1.405       .  A
S2730      H2741   1.407       .  S
C2732      C2733   1.397       .  A
C2732      S2737   1.808       .  S
C2733      C2734   1.406       .  A
C2733      H2738   1.081       .  S
C2734      C2735   1.412       .  A
C2735      C2736   1.408       .  A
C2735      S2739   1.805       .  S
C2736      H2740   1.083       .  S
S2737      H2742   1.407       .  S
S2739      H2743   1.406       .  S
C2745      C2746   1.404       .  A
C2745      C2750   1.404       .  A
C2745      H2755   1.084       .  S
C2746      C2751   1.486       .  S
C2746      C2747   1.411       .  A
C2747      C2748   1.398       .  A
C2747      S2752   1.805       .  S
C2748      C2749   1.408       .  A
C2748      H2753   1.082       .  S
C2749      C2750   1.415       .  A
C2750      S2754   1.798       .  S
S2754      H2765   1.400       .  S
C2756      C2757   1.408       .  A
C2757      C2758   1.407       .  A
C2757      H2762   1.082       .  S
C2758      C2759   1.418       .  A
C2759      C2760   1.399   1_565  A
C2759      S2763   1.801       .  S
S2763      H2767   1.407       .  S
C2769      C2770   1.405       .  A
C2769      C2774   1.409       .  A
C2769      H2779   1.083       .  S
C2770      C2775   1.484       .  S
C2770      C2771   1.410       .  A
C2771      C2772   1.397       .  A
C2771      S2776   1.804       .  S
C2772      C2773   1.407       .  A
C2772      H2777   1.082       .  S
C2773      C2774   1.412       .  A
C2774      S2778   1.805       .  S
C2775      C2780   1.411       .  A
C2775      C2784   1.399       .  A
S2776      H2792   1.404       .  S
S2778      H2789   1.406       .  S
C2780      C2781   1.409       .  A
C2780      S2785   1.806       .  S
C2781      C2782   1.407       .  A
C2781      H2786   1.083       .  S
C2782      C2783   1.418       .  A
C2783      C2784   1.399       .  A
C2783      S2787   1.804       .  S
C2784      H2788   1.084       .  S
S2785      H2790   1.407       .  S
S2787      H2791   1.407       .  S
C2793      C2794   1.402       .  A
C2793      C2798   1.397       .  A
C2793      H2803   1.084       .  S
C2794      C2799   1.483       .  S
C2794      C2795   1.414       .  A
C2795      C2796   1.401       .  A
C2795      S2800   1.803       .  S
C2796      C2797   1.402       .  A
C2796      H2801   1.083       .  S
C2797      C2798   1.415       .  A
C2798      S2802   1.803       .  S
C2799      C2804   1.410   1_655  A
S2800      H2816   1.406       .  S
S2802      H2813   1.401       .  S
C2804      S2809   1.808   1_455  S
C2805      C2806   1.406       .  A
C2805      H2810   1.083       .  S
C2806      C2807   1.415       .  A
C2807      C2808   1.400       .  A
C2807      S2811   1.803       .  S
C2808      H2812   1.084       .  S
S2809      H2814   1.407       .  S
S2811      H2815   1.407       .  S
C2817      C2822   1.401       .  A
C2817      H2827   1.084       .  S
C2818      C2823   1.481       .  S
C2819      C2820   1.398       .  A
C2820      C2821   1.405       .  A
C2820      H2825   1.084       .  S
C2821      C2822   1.415       .  A
C2822      S2826   1.803       .  S
C2823      C2828   1.411       .  A
C2823      C2832   1.402       .  A
S2824      H2840   1.406       .  S
S2826      H2837   1.407       .  S
C2828      C2829   1.403       .  A
C2828      S2833   1.806       .  S
C2829      C2830   1.402       .  A
C2829      H2834   1.082       .  S
C2830      C2831   1.414       .  A
C2831      C2832   1.397       .  A
C2831      S2835   1.802       .  S
C2832      H2836   1.084       .  S
S2833      H2838   1.407       .  S
S2835      H2839   1.401       .  S
C2841      C2842   1.401       .  A
C2841      C2846   1.396       .  A
C2841      H2851   1.084       .  S
C2842      C2847   1.479       .  S
C2842      C2843   1.412       .  A
C2843      C2844   1.400       .  A
C2843      S2848   1.803       .  S
C2844      C2845   1.403       .  A
C2844      H2849   1.083       .  S
C2845      C2846   1.414       .  A
C2846      S2850   1.804       .  S
C2847      C2852   1.409       .  A
C2847      C2856   1.403       .  A
S2848      H2864   1.406       .  S
S2850      H2861   1.401       .  S
C2852      C2853   1.400       .  A
C2852      S2857   1.808       .  S
C2853      C2854   1.405       .  A
C2853      H2858   1.083       .  S
C2854      C2855   1.414       .  A
C2855      C2856   1.400       .  A
C2855      S2859   1.803       .  S
C2856      H2860   1.084       .  S
S2857      H2862   1.407       .  S
S2859      H2863   1.407       .  S
C2865      C2866   1.398       .  A
C2865      C2870   1.394       .  A
C2865      H2875   1.084       .  S
C2866      C2871   1.471       .  S
C2866      C2867   1.413       .  A
C2867      C2868   1.399       .  A
C2867      S2872   1.805       .  S
C2868      C2869   1.402       .  A
C2868      H2873   1.084       .  S
C2869      C2870   1.416       .  A
C2871      C2876   1.405       .  A
C2871      C2880   1.402       .  A
S2872      H2888   1.405       .  S
S2874      H2885   1.407       .  S
C2876      C2877   1.396       .  A
C2876      S2881   1.808       .  S
C2877      C2878   1.406       .  A
C2877      H2882   1.083       .  S
C2878      C2879   1.414       .  A
C2879      C2880   1.399       .  A
C2879      S2883   1.803       .  S
C2880      H2884   1.084       .  S
S2881      H2886   1.407       .  S
S2883      H2887   1.407       .  S
C2889      C2890   1.402       .  A
C2889      C2894   1.399       .  A
C2889      H2899   1.084       .  S
C2890      C2895   1.474       .  S
C2890      C2891   1.408       .  A
C2891      C2892   1.395       .  A
C2891      S2896   1.805       .  S
C2892      C2893   1.408       .  A
C2892      H2897   1.084       .  S
C2893      C2894   1.414       .  A
C2894      S2898   1.802       .  S
C2895      C2900   1.407       .  A
C2895      C2904   1.402       .  A
S2896      H2912   1.406       .  S
S2898      H2909   1.408       .  S
C2900      C2901   1.399       .  A
C2900      S2905   1.807       .  S
C2901      C2902   1.405       .  A
C2901      H2906   1.083       .  S
C2902      C2903   1.413       .  A
C2903      C2904   1.398       .  A
C2903      S2907   1.803       .  S
C2904      H2908   1.084       .  S
S2905      H2910   1.407       .  S
S2907      H2911   1.407       .  S
C2913      C2914   1.397       .  A
C2913      C2918   1.392       .  A
C2913      H2923   1.084       .  S
C2914      C2919   1.469       .  S
C2914      C2915   1.412       .  A
C2915      C2916   1.400       .  A
C2915      S2920   1.804       .  S
C2916      C2917   1.403       .  A
C2916      H2921   1.083       .  S
C2917      C2918   1.417       .  A
C2919      C2924   1.409       .  A
C2919      C2928   1.397       .  A
S2920      H2936   1.405       .  S
S2922      H2933   1.407       .  S
C2924      C2925   1.401       .  A
C2924      S2929   1.806       .  S
C2925      C2926   1.402       .  A
C2925      H2930   1.083       .  S
C2926      C2927   1.415       .  A
C2927      C2928   1.394       .  A
C2927      S2931   1.805       .  S
C2928      H2932   1.084       .  S
S2929      H2934   1.407       .  S
S2931      H2935   1.407       .  S
