geometry optimzed in LAMMPS
_audit_creation_date              2020-12-01 
_audit_creation_method            'lammps2cif' 
_symmetry_space_group_name_H-M    'P1' 
_symmetry_Int_Tables_number       1 
_symmetry_cell_setting            triclinic 
loop_ 
_symmetry_equiv_pos_as_xyz 
  x,y,z 
_cell_length_a                    48.37448365 
_cell_length_b                    48.21767270532741 
_cell_length_c                    71.23447163544137 
_cell_angle_alpha                 90.0072390307989 
_cell_angle_beta                  89.98749602724081 
_cell_angle_gamma                 121.07614085622468 
loop_ 
_atom_site_label 
_atom_site_type_symbol 
_atom_site_fract_x 
_atom_site_fract_y 
_atom_site_fract_z 
_atom_site_charge 
C1          C  0.16716698  0.33451159  0.61618658     0.45700
H2          H  0.16566887  0.33518172  0.60064061    -0.03400
C3          C  0.17041156  0.33266227  0.65264953     0.45700
H4          H  0.17179247  0.33166104  0.66817951    -0.03400
C5          C  0.20167647  0.35352653  0.62367184    -0.17100
C6          C  0.14938129  0.34866731  0.62627994    -0.16800
C7          C  0.15297696  0.30041480  0.62406815    -0.17200
C8          C  0.20372402  0.35196964  0.64289477    -0.17200
C9          C  0.15097214  0.34794258  0.64554294    -0.16700
C10         C  0.15427664  0.29900356  0.64322742    -0.17000
C11         C  0.16905957  0.33381066  0.81057112     0.45700
H12         H  0.16966742  0.33391723  0.79497746    -0.03400
C13         C  0.16800649  0.33376919  0.84714680     0.45700
H14         H  0.16766401  0.33361169  0.86273721    -0.03400
C15         C  0.15258937  0.29971401  0.81934442    -0.17100
C16         C  0.20286049  0.35217297  0.81965105    -0.16800
C17         C  0.15129132  0.34984486  0.81900953    -0.17200
C18         C  0.15216041  0.29981928  0.83862605    -0.17200
C19         C  0.20195721  0.35217490  0.83888955    -0.16700
C20         C  0.15050718  0.34941360  0.83831416    -0.17000
C21         C  0.00417174  0.99912526  0.75050393     0.45700
H22         H  0.00528924  0.00027346  0.76608561    -0.03400
C23         C  0.00127436  0.99619957  0.71382569     0.45700
H24         H  0.00019952  0.49497802  0.69832903    -0.03400
C25         C  0.46986818  0.48188834  0.74282838    -0.17100
C26         C  0.02086296  0.03244763  0.74094247    -0.16800
C27         C  0.01992634  0.48133636  0.74189744    -0.17200
C28         C  0.46817422  0.47940715  0.72356397    -0.17200
C29         C  0.01905362  0.03097781  0.72165481    -0.16700
C30         C  0.01898176  0.48021414  0.72259430    -0.17000
C31         C  0.33831338  0.16211309  0.31080520     0.45700
H32         H  0.33734951  0.16107765  0.29522172    -0.03400
C33         C  0.34141097  0.16511200  0.34729676     0.45700
H34         H  0.34259749  0.16647942  0.36287126    -0.03400
C35         C  0.35787293  0.19690271  0.31857393    -0.17100
C36         C  0.30500650  0.14709780  0.32039200    -0.16800
C37         C  0.35445209  0.14478202  0.31954215    -0.17200
C38         C  0.35951496  0.19816965  0.33779094    -0.17200
C39         C  0.30690960  0.14897357  0.33967410    -0.16700
C40         C  0.35571856  0.14607029  0.33881385    -0.17000
C41         C  0.33834213  0.16186885  0.15315759     0.45700
H42         H  0.33801960  0.16129173  0.16875111    -0.03400
C43         C  0.33921718  0.16365630  0.11659434     0.45700
H44         H  0.33938798  0.16439625  0.10099553    -0.03400
C45         C  0.30463975  0.14689744  0.14421038    -0.17100
C46         C  0.35740569  0.19642599  0.14497560    -0.16800
C47         C  0.35361331  0.14382738  0.14405591    -0.17200
C48         C  0.30528333  0.14797474  0.12495722    -0.17200
C49         C  0.35770860  0.19707191  0.12571128    -0.16700
C50         C  0.35355531  0.14449590  0.12475823    -0.17000
C51         C  0.00530977  0.49812380  0.21381137     0.45700
H52         H  0.00614770  0.49773123  0.19822792    -0.03400
C53         C  0.00333442  0.49876991  0.25043972     0.45700
H54         H  0.00250077  0.49898988  0.26602623    -0.03400
C55         C  0.48842647  0.46430098  0.22272899    -0.17100
C56         C  0.03868211  0.01640229  0.22303941    -0.16800
C57         C  0.48731686  0.01430103  0.22157641    -0.17200
C58         C  0.48714172  0.46460755  0.24197950    -0.17200
C59         C  0.03764385  0.01653005  0.24234230    -0.16700
C60         C  0.48648280  0.01483857  0.24088415    -0.17000
O61         O  0.01312013  0.05898616  0.95641490    -0.78300
C62         C  0.43198788  0.45921791  0.94944454     0.82800
O63         O  0.47362340  0.01713415  0.01864917    -0.79400
O64         O  0.46402785  0.41835582  0.99424576    -0.80900
O65         O  0.05974667  0.49301412  0.95887046    -0.80700
O66         O  0.06026051  0.06176851  0.95982137    -0.79300
Zn67       Zn  0.48098271  0.01952060  0.97161853     1.55700
O68         O  0.01338823  0.44581879  0.95656263    -0.80700
Cd69       Cd  0.04896708  0.02139725  0.97559148     1.59700
Cd70       Cd  0.99820159  0.99579701  0.00967969     1.59600
O71         O  0.07815841  0.03550862  0.99935961    -0.80700
O72         O  0.00202661  0.99752639  0.98200169    -1.91200
Cd73       Cd  0.48132877  0.45197523  0.97254945     1.59900
O74         O  0.04233734  0.01827684  0.02260224    -0.80700
O75         O  0.44302027  0.44190368  0.95541474    -0.79300
C76         C  0.46074227  0.03092075  0.01026068     0.83200
C77         C  0.04334648  0.07273342  0.95309366     0.82900
O78         O  0.44443856  0.48878746  0.95433174    -0.78300
C79         C  0.04313447  0.46425833  0.95247282     0.83700
O80         O  0.46184412  0.03385931  0.99241083    -0.78400
C81         C  0.07135847  0.03221751  0.01682950     0.83800
C82         C  0.46272371  0.42167694  0.01192561     0.84100
O83         O  0.47404720  0.44938557  0.01943130    -0.80800
O84         O  0.49271062  0.43608976  0.45604705    -0.78300
C85         C  0.07901747  0.03159422  0.45267092     0.82800
O86         O  0.02183766  0.47033238  0.52003570    -0.79400
O87         O  0.04607610  0.07473522  0.49729223    -0.81900
O88         O  0.45653689  0.01149000  0.45485682    -0.80700
O89         O  0.44825487  0.43892832  0.45472119    -0.79300
Zn90       Zn  0.02388108  0.47285781  0.47286058     1.55700
O91         O  0.50506242  0.05640371  0.45649020    -0.80700
Cd92       Cd  0.45966396  0.47824548  0.47151585     1.59700
Cd93       Cd  0.00132059  0.49479162  0.50927729     1.59600
O94         O  0.42542908  0.46367506  0.49271945    -0.80700
O95         O  0.00440409  0.49723482  0.48156631    -1.91200
Cd96       Cd  0.03126010  0.04402241  0.47400646     1.59900
O97         O  0.45459001  0.47252527  0.51857034    -0.80700
O98         O  0.07061075  0.05120848  0.45848433    -0.79300
C99         C  0.03466482  0.45576320  0.51249105     0.83200
C100        C  0.46421796  0.42573201  0.44994325     0.82900
O101        O  0.06341911  0.00174150  0.45724217    -0.78300
C102        C  0.47619174  0.04083726  0.45028615     0.83700
O103        O  0.03695690  0.45461375  0.49468480    -0.78400
C104        C  0.42762689  0.46267339  0.51051691     0.83800
C105        C  0.04023499  0.06870442  0.51477942     0.84100
O106        O  0.02400749  0.03988899  0.52097686    -0.80800
C107        C  0.09748215  0.04423219  0.03097161    -0.03000
C108        C  0.08977573  0.03844933  0.05017060    -0.05600
C109        C  0.11404434  0.04870435  0.06363919    -0.20700
C110        C  0.14657563  0.06535359  0.05831340     0.25100
C111        C  0.15444066  0.07106837  0.03910543    -0.18200
C112        C  0.13009360  0.06063555  0.02557357    -0.08200
C113        C  0.17146828  0.07570719  0.07317046    -0.18500
C114        C  0.20142768  0.10156059  0.07131105    -0.23300
C115        C  0.22634535  0.11308030  0.08625226     0.27100
C116        C  0.25244775  0.14506181  0.08526488    -0.20000
C117        C  0.27742619  0.15662836  0.09833853    -0.09700
C118        C  0.27679707  0.13643879  0.11268286    -0.10200
C119        C  0.25058722  0.10458197  0.11397529    -0.03200
C120        C  0.22555852  0.09288613  0.10082330    -0.18300
H121        H  0.06483452  0.52583768  0.05477282     0.10800
H122        H  0.10736768  0.04381279  0.07831502     0.10900
H123        H  0.17926222  0.08298456  0.03443614     0.10500
H124        H  0.13680367  0.06518033  0.01089750     0.11700
H125        H  0.16403019  0.06285664  0.08644112     0.11700
H126        H  0.20764423  0.11605626  0.05862406     0.13600
H127        H  0.25372025  0.16107297  0.07418603     0.10200
H128        H  0.29755589  0.18127502  0.09709005     0.12300
H129        H  0.25014080  0.08840215  0.12467446     0.08900
H130        H  0.20640501  0.06781034  0.10177849     0.11600
C131        C  0.36999303  0.22662630  0.11426681    -0.03000
C132        C  0.35683712  0.24644701  0.11623760    -0.05600
C133        C  0.36721867  0.27337164  0.10461028    -0.20700
C134        C  0.39044458  0.28046056  0.09066751     0.25100
C135        C  0.40404861  0.26088566  0.08903331    -0.18200
C136        C  0.39374983  0.23410306  0.10070693    -0.08200
C137        C  0.40071688  0.30887001  0.07837255    -0.18500
C138        C  0.41108118  0.31012902  0.06068386    -0.23300
C139        C  0.42278122  0.33883603  0.04840976     0.27100
C140        C  0.42237760  0.33482190  0.02887601    -0.20000
C141        C  0.43483257  0.36159722  0.01690404    -0.09700
C142        C  0.44819069  0.39294865  0.02430424    -0.10200
C143        C  0.44842623  0.39689144  0.04387931    -0.03200
C144        C  0.43600339  0.37019168  0.05580657    -0.18300
H145        H  0.33821697  0.24076338  0.12657594     0.10800
H146        H  0.35666578  0.28831791  0.10624728     0.10900
H147        H  0.42292839  0.26641728  0.07893367     0.10500
H148        H  0.40461463  0.21948610  0.09930105     0.11700
H149        H  0.39828929  0.32853582  0.08381441     0.11700
H150        H  0.41020820  0.28896929  0.05470387     0.13600
H151        H  0.41254359  0.31089626  0.02287051     0.10200
H152        H  0.93432847  0.35776951  0.00189804     0.12300
H153        H  0.45877567  0.42073639  0.05007304     0.08900
H154        H  0.43773506  0.37440766  0.07078875     0.11600
C155        C  0.44429350  0.04359389  0.02187664    -0.03000
C156        C  0.43169169  0.06144266  0.01396454    -0.05600
C157        C  0.41718471  0.07400576  0.02540604    -0.20700
C158        C  0.41472395  0.06871631  0.04490255     0.25100
C159        C  0.42719820  0.05068317  0.05275034    -0.18200
C160        C  0.44163959  0.03820479  0.04137662    -0.08200
C161        C  0.40136504  0.08437731  0.05677720    -0.18500
C162        C  0.39063898  0.07494371  0.07446864    -0.23300
C163        C  0.38097248  0.09303038  0.08706625     0.27100
C164        C  0.36112845  0.07711255  0.10260207    -0.20000
C165        C  0.35244663  0.09379074  0.11505297    -0.09700
C166        C  0.36384410  0.12681027  0.11229702    -0.10200
C167        C  0.38380527  0.14272917  0.09689018    -0.03200
C168        C  0.39256314  0.12618751  0.08449509    -0.18300
H169        H  0.43343385  0.06608161  0.99900819     0.10800
H170        H  0.40810805  0.08814973  0.01903437     0.10900
H171        H  0.42689898  0.04693185  0.06772715     0.10500
H172        H  0.45118316  0.02466449  0.04799210     0.11700
H173        H  0.40041465  0.10443048  0.05059646     0.11700
H174        H  0.38847814  0.05296567  0.08002744     0.13600
H175        H  0.35212310  0.05166307  0.10501853     0.10200
H176        H  0.33649564  0.08082788  0.12666979     0.12300
H177        H  0.39294358  0.16811228  0.09451166     0.08900
H178        H  0.40890220  0.13972621  0.07317020     0.11600
C179        C  0.37205670  0.22621612  0.15662368    -0.03000
C180        C  0.35336387  0.23090262  0.16983846    -0.05600
C181        C  0.36579564  0.26088897  0.17883070    -0.20700
C182        C  0.39729839  0.28647706  0.17501024     0.25100
C183        C  0.41626335  0.28128132  0.16213856    -0.18200
C184        C  0.40379581  0.25142440  0.15313846    -0.08200
C185        C  0.40904859  0.31872923  0.18378627    -0.18500
C186        C  0.44060543  0.34060450  0.18647303    -0.23300
C187        C  0.45274344  0.37302909  0.19498325     0.27100
C188        C  0.48203533  0.38755902  0.20487046    -0.20000
C189        C  0.49413687  0.41779478  0.21333787    -0.09700
C190        C  0.47751394  0.43437694  0.21172708    -0.10200
C191        C  0.44899641  0.42074572  0.20117183    -0.03200
C192        C  0.43650433  0.39012616  0.19295598    -0.18300
H193        H  0.32869583  0.21187070  0.17256887     0.10800
H194        H  0.35060870  0.26428314  0.18858516     0.10900
H195        H  0.44028700  0.30052828  0.15839347     0.10500
H196        H  0.41860750  0.24830698  0.14295325     0.11700
H197        H  0.39108335  0.32412181  0.18872049     0.11700
H198        H  0.45839789  0.33397790  0.18329401     0.13600
H199        H  0.99519411  0.37509876  0.20643778     0.10200
H200        H  0.01616992  0.42803557  0.22148866     0.12300
H201        H  0.43586967  0.43328189  0.19987860     0.08900
H202        H  0.41434113  0.38001482  0.18497593     0.11600
C203        C  0.47201191  0.02739290  0.20927112    -0.03000
C204        C  0.49017893  0.05024483  0.19539993    -0.05600
C205        C  0.47671264  0.06514858  0.18513019    -0.20700
C206        C  0.44492136  0.05749848  0.18859707     0.25100
C207        C  0.42624257  0.03325029  0.20183022    -0.18200
C208        C  0.43968423  0.01833291  0.21202363    -0.08200
C209        C  0.43201887  0.07499886  0.17802861    -0.18500
C210        C  0.40802950  0.07892413  0.18452424    -0.23300
C211        C  0.39516108  0.09677101  0.17425542     0.27100
C212        C  0.36446782  0.09109538  0.17908783    -0.20000
C213        C  0.35121688  0.10698812  0.16962685    -0.09700
C214        C  0.36841453  0.12876486  0.15511732    -0.10200
C215        C  0.39959134  0.13549653  0.15075656    -0.03200
C216        C  0.41287841  0.11971518  0.16020089    -0.18300
H217        H  0.51510751  0.05737928  0.19299369     0.10800
H218        H  0.49145190  0.08335655  0.17480887     0.10900
H219        H  0.40124263  0.02557193  0.20433044     0.10500
H220        H  0.42500295  0.00007212  0.22233058     0.11700
H221        H  0.44340783  0.08556721  0.16469798     0.11700
H222        H  0.39692508  0.06844314  0.19793882     0.13600
H223        H  0.35046927  0.07390024  0.19002658     0.10200
H224        H  0.32723228  0.10163377  0.17329217     0.12300
H225        H  0.41363369  0.15292648  0.13992740     0.08900
H226        H  0.43709915  0.12594537  0.15653788     0.11600
C227        C  0.27511997  0.13649169  0.15535115    -0.03000
C228        C  0.26022760  0.15487050  0.15495568    -0.05600
C229        C  0.23115060  0.14418650  0.16446007    -0.20700
C230        C  0.21613940  0.11461626  0.17417874     0.25100
C231        C  0.23173873  0.09674435  0.17503982    -0.18200
C232        C  0.26111130  0.10772776  0.16573908    -0.08200
C233        C  0.18440433  0.10326665  0.18331351    -0.18500
C234        C  0.16186414  0.07163333  0.18524696    -0.23300
C235        C  0.12953306  0.05925642  0.19393050     0.27100
C236        C  0.10534071  0.02683887  0.19071392    -0.20000
C237        C  0.07527976  0.01336496  0.19953638    -0.09700
C238        C  0.06900851  0.03192158  0.21198901    -0.10200
C239        C  0.09266224  0.06457951  0.21485821    -0.03200
C240        C  0.12270436  0.07815455  0.20597795    -0.18300
H241        H  0.27098730  0.17731598  0.14709674     0.10800
H242        H  0.21989691  0.15861276  0.16379865     0.10900
H243        H  0.22138260  0.07437725  0.18291254     0.10500
H244        H  0.27244998  0.09338364  0.16622461     0.11700
H245        H  0.17884690  0.12156173  0.18730518     0.11700
H246        H  0.16679012  0.05371452  0.17956696     0.13600
H247        H  0.10990831  0.01169245  0.18156447     0.10200
H248        H  0.05777743  0.48793441  0.19759808     0.12300
H249        H  0.08816218  0.07929927  0.22441060     0.08900
H250        H  0.14070339  0.10299742  0.20916842     0.11600
C251        C  0.10687460  0.04350428  0.43973900    -0.03000
C252        C  0.11802727  0.02308583  0.43398225    -0.05600
C253        C  0.14293685  0.03371585  0.42082768    -0.20700
C254        C  0.15730207  0.06494771  0.41313414     0.25100
C255        C  0.14605981  0.08536253  0.41888196    -0.18200
C256        C  0.12132444  0.07481495  0.43211789    -0.08200
C257        C  0.18293833  0.07474711  0.39868566    -0.18500
C258        C  0.20359953  0.10575369  0.39375980    -0.23300
C259        C  0.22928427  0.11577477  0.37938385     0.27100
C260        C  0.25542491  0.14779806  0.37975943    -0.20000
C261        C  0.28029356  0.15846507  0.36665799    -0.09700
C262        C  0.27932879  0.13746119  0.35273052    -0.10200
C263        C  0.25304644  0.10555443  0.35203705    -0.03200
C264        C  0.22808228  0.09478746  0.36519471    -0.18300
H265        H  0.10727643  0.99872730  0.43947986     0.10800
H266        H  0.15089008  0.01737771  0.41656267     0.10900
H267        H  0.15550201  0.10917797  0.41290749     0.10500
H268        H  0.11296656  0.09097503  0.43601518     0.11700
H269        H  0.18547960  0.05565565  0.39244370     0.11700
H270        H  0.20299049  0.12507156  0.40116376     0.13600
H271        H  0.25681638  0.16455455  0.39038433     0.10200
H272        H  0.30036675  0.18321702  0.36738685     0.12300
H273        H  0.25202528  0.08892997  0.34144765     0.08900
H274        H  0.20790542  0.07022594  0.36404997     0.11600
C275        C  0.37629400  0.22809667  0.34895787    -0.03000
C276        C  0.40623575  0.23752875  0.35706630    -0.05600
C277        C  0.42139724  0.26475776  0.36863774    -0.20700
C278        C  0.40651475  0.28253934  0.37256902     0.25100
C279        C  0.37677682  0.27343654  0.36396538    -0.18200
C280        C  0.36178541  0.24633003  0.35223573    -0.08200
C281        C  0.42280671  0.31040204  0.38562474    -0.18500
C282        C  0.40656343  0.32010594  0.39647899    -0.23300
C283        C  0.42219080  0.34707773  0.41023846     0.27100
C284        C  0.40465740  0.36096903  0.41673222    -0.20000
C285        C  0.41814723  0.38626833  0.42973692    -0.09700
C286        C  0.44949624  0.39813025  0.43667446    -0.10200
C287        C  0.46689374  0.38388182  0.43043617    -0.03200
C288        C  0.45339752  0.35857004  0.41741689    -0.18300
H289        H  0.41789691  0.22387661  0.35436176     0.10800
H290        H  0.44447064  0.27153969  0.37487745     0.10900
H291        H  0.36513729  0.28722571  0.36614955     0.10500
H292        H  0.33868836  0.23927788  0.34593150     0.11700
H293        H  0.44882649  0.32222967  0.38671978     0.11700
H294        H  0.38047631  0.30778389  0.39533562     0.13600
H295        H  0.38047951  0.35239574  0.41159229     0.10200
H296        H  0.40403030  0.39663581  0.43426740     0.12300
H297        H  0.99102299  0.39231165  0.43558988     0.08900
H298        H  0.46741636  0.34792433  0.41333584     0.11600
C299        C  0.46507058  0.05701950  0.43727816    -0.03000
C300        C  0.48646997  0.08851675  0.43067697    -0.05600
C301        C  0.47579961  0.10343464  0.41822245    -0.20700
C302        C  0.44369022  0.08710469  0.41198072     0.25100
C303        C  0.42217025  0.05576310  0.41877257    -0.18200
C304        C  0.43279656  0.04086641  0.43120578    -0.08200
C305        C  0.43308084  0.10383085  0.39898821    -0.18500
C306        C  0.40816639  0.08780166  0.38704123    -0.23300
C307        C  0.39638748  0.10398680  0.37442801     0.27100
C308        C  0.37740420  0.08683217  0.35888733    -0.20000
C309        C  0.36443893  0.10051301  0.34719375    -0.09700
C310        C  0.37039078  0.13177341  0.35074375    -0.10200
C311        C  0.38911840  0.14883073  0.36637705    -0.03200
C312        C  0.40197403  0.13513879  0.37812846    -0.18300
H313        H  0.51148171  0.10162720  0.43508390     0.10800
H314        H  0.49274138  0.12772038  0.41332734     0.10900
H315        H  0.39696024  0.04284753  0.41482437     0.10500
H316        H  0.41559481  0.01670420  0.43614795     0.11700
H317        H  0.44712453  0.13009160  0.39882064     0.11700
H318        H  0.39631840  0.06164412  0.38598899     0.13600
H319        H  0.37226059  0.06258204  0.35590811     0.10200
H320        H  0.34907611  0.08628400  0.33567668     0.12300
H321        H  0.39367828  0.17272671  0.36965534     0.08900
H322        H  0.41546034  0.14874344  0.39032121     0.11600
C323        C  0.37266385  0.22605747  0.30647083    -0.03000
C324        C  0.35381510  0.23023169  0.29315138    -0.05600
C325        C  0.36663669  0.25929700  0.28317401    -0.20700
C326        C  0.39840175  0.28469260  0.28646175     0.25100
C327        C  0.41780739  0.27972937  0.29907595    -0.18200
C328        C  0.40505299  0.25058811  0.30890447    -0.08200
C329        C  0.41058994  0.31575881  0.27631201    -0.18500
C330        C  0.43336752  0.34459717  0.28338416    -0.23300
C331        C  0.44567629  0.37583638  0.27332757     0.27100
C332        C  0.47635519  0.40209864  0.27798199    -0.20000
C333        C  0.48948099  0.43138619  0.26818944    -0.09700
C334        C  0.47205890  0.43488493  0.25363052    -0.10200
C335        C  0.44066719  0.40939212  0.24969168    -0.03200
C336        C  0.42757202  0.38012153  0.25939844    -0.18300
H337        H  0.32884129  0.21147106  0.29096976     0.10800
H338        H  0.35140106  0.26234357  0.27328178     0.10900
H339        H  0.44283665  0.29816359  0.30131721     0.10500
H340        H  0.42041274  0.24732566  0.31856071     0.11700
H341        H  0.39967531  0.31461750  0.26282010     0.11700
H342        H  0.44406030  0.34548094  0.29693263     0.13600
H343        H  0.99057099  0.39964156  0.28887395     0.10200
H344        H  0.01364374  0.45091123  0.27154141     0.12300
H345        H  0.42636133  0.41205862  0.23896035     0.08900
H346        H  0.40326756  0.36113366  0.25598130     0.11600
C347        C  0.47129750  0.02963550  0.25181811    -0.03000
C348        C  0.44752285  0.01123959  0.26518448    -0.05600
C349        C  0.43078606  0.02401937  0.27414990    -0.20700
C350        C  0.43792453  0.05558412  0.27014128     0.25100
C351        C  0.46254053  0.07431714  0.25712274    -0.18200
C352        C  0.47918443  0.06149623  0.24816312    -0.08200
C353        C  0.41812030  0.06748508  0.27899015    -0.18500
C354        C  0.42849400  0.09911946  0.28121635    -0.23300
C355        C  0.40866804  0.11081920  0.29015885     0.27100
C356        C  0.42438126  0.14026830  0.29996038    -0.20000
C357        C  0.40659326  0.15162359  0.30907227    -0.09700
C358        C  0.37279852  0.13403613  0.30822702    -0.10200
C359        C  0.35693414  0.10540212  0.29772214    -0.03200
C360        C  0.37472991  0.09369368  0.28883037    -0.18300
H361        H  0.44143229  0.48660229  0.26839536     0.10800
H362        H  0.41190763  0.00906283  0.28406992     0.10900
H363        H  0.46831164  0.09842921  0.25328885     0.10500
H364        H  0.99766344  0.07615010  0.23797147     0.11700
H365        H  0.39463385  0.04947359  0.28448810     0.11700
H366        H  0.45312021  0.11721123  0.27749050     0.13600
H367        H  0.45046672  0.15409013  0.30098150     0.10200
H368        H  0.41913700  0.17388313  0.31709368     0.12300
H369        H  0.33083669  0.09160770  0.29695885     0.08900
H370        H  0.36194065  0.07139457  0.28090322     0.11600
C371        C  0.06670981  0.03090923  0.25450428    -0.03000
C372        C  0.07136678  0.05357677  0.26835584    -0.05600
C373        C  0.10018953  0.06927273  0.27863635    -0.20700
C374        C  0.12481189  0.06258607  0.27522189     0.25100
C375        C  0.11917124  0.03843463  0.26204358    -0.18200
C376        C  0.09041409  0.02278593  0.25182933    -0.08200
C377        C  0.15572502  0.08078428  0.28582732    -0.18500
C378        C  0.18390177  0.08484962  0.27948848    -0.23300
C379        C  0.21499506  0.10222570  0.28995710     0.27100
C380        C  0.23938853  0.09582445  0.28527502    -0.20000
C381        C  0.26875655  0.11088186  0.29494860    -0.09700
C382        C  0.27442076  0.13274355  0.30950914    -0.10200
C383        C  0.25070719  0.14038661  0.31366668    -0.03200
C384        C  0.22121811  0.12520012  0.30406565    -0.18300
H385        H  0.05316883  0.05988488  0.27077517     0.10800
H386        H  0.10360558  0.08728575  0.28895153     0.10900
H387        H  0.13670973  0.03130951  0.25961504     0.10500
H388        H  0.08680512  0.00455006  0.24162834     0.11700
H389        H  0.15506863  0.09145125  0.29909780     0.11700
H390        H  0.18439774  0.07441656  0.26609385     0.13600
H391        H  0.23547856  0.07860970  0.27430090     0.10200
H392        H  0.28676494  0.10482888  0.29135062     0.12300
H393        H  0.25496470  0.15808027  0.32438967     0.08900
H394        H  0.20368574  0.13187692  0.30761256     0.11600
C395        C  0.05935493  0.10176397  0.94081411    -0.03000
C396        C  0.09247675  0.11659558  0.93676304    -0.05600
C397        C  0.10747788  0.14297678  0.92452856    -0.20700
C398        C  0.08980834  0.15512150  0.91590740     0.25100
C399        C  0.05681803  0.14088723  0.92032722    -0.18200
C400        C  0.04176499  0.11442635  0.93259230    -0.08200
C401        C  0.10693114  0.18297261  0.90275988    -0.18500
C402        C  0.09189552  0.19041574  0.88950850    -0.23300
C403        C  0.10886381  0.21798681  0.87613192     0.27100
C404        C  0.09204328  0.21868522  0.86022842    -0.20000
C405        C  0.10633828  0.24470813  0.84768336    -0.09700
C406        C  0.13785152  0.27061702  0.85077090    -0.10200
C407        C  0.15483290  0.26999649  0.86656805    -0.03200
C408        C  0.14054955  0.24404803  0.87916012    -0.18300
H409        H  0.10685580  0.10762282  0.94289467     0.10800
H410        H  0.13296608  0.15366178  0.92157861     0.10900
H411        H  0.04253661  0.15019459  0.91454436     0.10500
H412        H  0.01629861  0.10378847  0.93554779     0.11700
H413        H  0.13306110  0.19663276  0.90351108     0.11700
H414        H  0.06598957  0.17497650  0.88779460     0.13600
H415        H  0.06751896  0.19920355  0.85763122     0.10200
H416        H  0.09235826  0.24506789  0.83593067     0.12300
H417        H  0.17909151  0.28989808  0.86931999     0.08900
H418        H  0.15420223  0.24515996  0.89143110     0.11600
C419        C  0.23056742  0.36820786  0.85108753    -0.03000
C420        C  0.23904626  0.39767996  0.85965192    -0.05600
C421        C  0.26581158  0.41287906  0.87148121    -0.20700
C422        C  0.28421530  0.39859740  0.87512019     0.25100
C423        C  0.27585863  0.36914498  0.86625972    -0.18200
C424        C  0.24913182  0.35405648  0.85431309    -0.08200
C425        C  0.31244096  0.41563196  0.88776817    -0.18500
C426        C  0.32303224  0.39997485  0.89845763    -0.23300
C427        C  0.35097759  0.41622567  0.91152257     0.27100
C428        C  0.36263339  0.39758719  0.91946690    -0.20000
C429        C  0.38886797  0.41150378  0.93176003    -0.09700
C430        C  0.40403419  0.44447774  0.93650032    -0.10200
C431        C  0.39221498  0.46312807  0.92875242    -0.03200
C432        C  0.36595587  0.44921301  0.91644638    -0.18300
H433        H  0.22530714  0.40921008  0.85688653     0.10800
H434        H  0.27203079  0.43573392  0.87793268     0.10900
H435        H  0.29015079  0.35800664  0.86826220     0.10500
H436        H  0.24287082  0.33137757  0.84760900     0.11700
H437        H  0.32381348  0.44169739  0.88855397     0.11700
H438        H  0.31056328  0.37374076  0.89770240     0.13600
H439        H  0.35150064  0.37211737  0.91606857     0.10200
H440        H  0.39724435  0.39636106  0.93754554     0.12300
H441        H  0.40324693  0.48855550  0.93220220     0.08900
H442        H  0.35756215  0.46453874  0.91112627     0.11600
C443        C  0.13512266  0.36298394  0.85021302    -0.03000
C444        C  0.10417528  0.35717697  0.84613249    -0.05600
C445        C  0.08932570  0.36852173  0.85816635    -0.20700
C446        C  0.10505832  0.38573035  0.87451282     0.25100
C447        C  0.13578364  0.39092923  0.87872938    -0.18200
C448        C  0.15061185  0.37979646  0.86666890    -0.08200
C449        C  0.08816621  0.39646552  0.88730440    -0.18500
C450        C  0.10377301  0.42042215  0.89994738    -0.23300
C451        C  0.08736882  0.43077869  0.91335757     0.27100
C452        C  0.10568477  0.46104236  0.92211109    -0.20000
C453        C  0.09148176  0.47174892  0.93500734    -0.09700
C454        C  0.05859356  0.45226838  0.93953028    -0.10200
C455        C  0.04035860  0.42168068  0.93104424    -0.03200
C456        C  0.05457583  0.41096625  0.91814537    -0.18300
H457        H  0.09108047  0.34311883  0.83395335     0.10800
H458        H  0.06536964  0.36359925  0.85478833     0.10900
H459        H  0.14823880  0.40276799  0.89155236     0.10500
H460        H  0.17410883  0.38401956  0.87043487     0.11700
H461        H  0.06221634  0.38482120  0.88575307     0.11700
H462        H  0.12994655  0.43403889  0.90018420     0.13600
H463        H  0.13107397  0.47661125  0.91885198     0.10200
H464        H  0.10625325  0.49540219  0.94132537     0.12300
H465        H  0.01499532  0.40600707  0.93429332     0.08900
H466        H  0.03981702  0.38702626  0.91224865     0.11600
C467        C  0.44133330  0.47307953  0.75474955    -0.03000
C468        C  0.42328015  0.48785756  0.75141699    -0.05600
C469        C  0.39368758  0.47661015  0.76037122    -0.20700
C470        C  0.38130968  0.45004430  0.77259312     0.25100
C471        C  0.40005855  0.43609257  0.77657967    -0.18200
C472        C  0.43006878  0.44777956  0.76781968    -0.08200
C473        C  0.34899097  0.43787966  0.78105693    -0.18500
C474        C  0.32790121  0.40624378  0.78432602    -0.23300
C475        C  0.29500078  0.39386248  0.79214898     0.27100
C476        C  0.27051816  0.36175176  0.78843000    -0.20000
C477        C  0.23989468  0.34871566  0.79656239    -0.09700
C478        C  0.23342057  0.36743067  0.80879661    -0.10200
C479        C  0.25743318  0.39984285  0.81202146    -0.03200
C480        C  0.28798101  0.41290269  0.80391077    -0.18300
H481        H  0.43169852  0.00766715  0.74145169     0.10800
H482        H  0.37988693  0.48797838  0.75724496     0.10900
H483        H  0.39148138  0.41612124  0.78635308     0.10500
H484        H  0.44373771  0.43613701  0.77053701     0.11700
H485        H  0.34148696  0.45532888  0.78319563     0.11700
H486        H  0.33438338  0.38858134  0.78032277     0.13600
H487        H  0.27527079  0.34656298  0.77943692     0.10200
H488        H  0.22171692  0.32361815  0.79395831     0.12300
H489        H  0.25280122  0.41484187  0.82124139     0.08900
H490        H  0.30627463  0.43749916  0.80744571     0.11600
C491        C  0.03141828  0.46359755  0.75331420    -0.03000
C492        C  0.01581785  0.42981788  0.75179201    -0.05600
C493        C  0.02881781  0.41302074  0.76034657    -0.20700
C494        C  0.05793422  0.42967380  0.77035136     0.25100
C495        C  0.07287878  0.46350666  0.77253194    -0.18200
C496        C  0.05954757  0.48029850  0.76413825    -0.08200
C497        C  0.07143474  0.41065064  0.77840581    -0.18500
C498        C  0.10307346  0.42300539  0.78185801    -0.23300
C499        C  0.11614024  0.40360981  0.78997297     0.27100
C500        C  0.14466385  0.41960175  0.80056737    -0.20000
C501        C  0.15663486  0.40210671  0.80946923    -0.09700
C502        C  0.14067807  0.36834052  0.80761407    -0.10200
C503        C  0.11328802  0.35236831  0.79615774    -0.03200
C504        C  0.10095981  0.36981581  0.78745800    -0.18300
H505        H  0.99400898  0.41656955  0.74350468     0.10800
H506        H  0.01658838  0.38698760  0.75865360     0.10900
H507        H  0.09477174  0.47706329  0.78066014     0.10500
H508        H  0.07183307  0.50639543  0.76544106     0.11700
H509        H  0.05450603  0.38517988  0.78110440     0.11700
H510        H  0.12006924  0.44849881  0.77926457     0.13600
H511        H  0.15710793  0.44559902  0.80249884     0.10200
H512        H  0.17795517  0.41479991  0.81820378     0.12300
H513        H  0.10078882  0.32631270  0.79454640     0.08900
H514        H  0.07959706  0.35676189  0.77884082     0.11600
C515        C  0.14151552  0.27004528  0.80811400    -0.03000
C516        C  0.15813601  0.25340499  0.80926608    -0.05600
C517        C  0.14634961  0.22381198  0.80005767    -0.20700
C518        C  0.11734173  0.20997553  0.78991876     0.25100
C519        C  0.10113179  0.22716536  0.78836571    -0.18200
C520        C  0.11334412  0.25717450  0.79729284    -0.08200
C521        C  0.10520010  0.17801628  0.78081158    -0.18500
C522        C  0.07356655  0.15608898  0.77852774    -0.23300
C523        C  0.06147641  0.12387217  0.76966539     0.27100
C524        C  0.03046872  0.09811256  0.77424383    -0.20000
C525        C  0.01778204  0.06794258  0.76547121    -0.09700
C526        C  0.03568767  0.06320368  0.75172169    -0.10200
C527        C  0.06691188  0.08866545  0.74738395    -0.03200
C528        C  0.07964139  0.11875275  0.75616293    -0.18300
H529        H  0.18001502  0.26317173  0.81752766     0.10800
H530        H  0.15948077  0.21126616  0.80125596     0.10900
H531        H  0.07919595  0.21757126  0.78020542     0.10500
H532        H  0.10031872  0.26984440  0.79626805     0.11700
H533        H  0.12295145  0.17161812  0.77703345     0.11700
H534        H  0.05580049  0.16128583  0.78408068     0.13600
H535        H  0.01591847  0.10144633  0.78451745     0.10200
H536        H  0.49355099  0.04866566  0.76892423     0.12300
H537        H  0.08119127  0.08545238  0.73686568     0.08900
H538        H  0.10326263  0.13815108  0.75188884     0.11600
C539        C  0.14089603  0.27246760  0.61143322    -0.03000
C540        C  0.16296612  0.26678300  0.60213443    -0.05600
C541        C  0.15230373  0.24248650  0.58862974    -0.20700
C542        C  0.11936984  0.22331307  0.58436843     0.25100
C543        C  0.09715371  0.22890865  0.59389561    -0.18200
C544        C  0.10794477  0.25342377  0.60737441    -0.08200
C545        C  0.10934904  0.19851430  0.56949868    -0.18500
C546        C  0.08019615  0.17129946  0.56919936    -0.23300
C547        C  0.07103641  0.14569907  0.55493034     0.27100
C548        C  0.04882754  0.11363126  0.55992673    -0.20000
C549        C  0.03940118  0.08874200  0.54693196    -0.09700
C550        C  0.05158833  0.09544029  0.52848995    -0.10200
C551        C  0.07363753  0.12764472  0.52338264    -0.03200
C552        C  0.08335697  0.15259646  0.53650502    -0.18300
H553        H  0.18848857  0.28132548  0.60526867     0.10800
H554        H  0.16982183  0.23865715  0.58147101     0.10900
H555        H  0.07168066  0.21514516  0.59058339     0.10500
H556        H  0.09079661  0.25809377  0.61428222     0.11700
H557        H  0.12739466  0.20180376  0.55922462     0.11700
H558        H  0.06328948  0.16639453  0.58055639     0.13600
H559        H  0.03889218  0.10777768  0.57399188     0.10200
H560        H  0.02214510  0.06422396  0.55131126     0.12300
H561        H  0.08325486  0.13355709  0.50926022     0.08900
H562        H  0.09993729  0.17724198  0.53207873     0.11600
C563        C  0.22961690  0.37129278  0.61075812    -0.03000
C564        C  0.25498141  0.40274573  0.61497206    -0.05600
C565        C  0.28186068  0.41845377  0.60315658    -0.20700
C566        C  0.28348883  0.40336115  0.58669288     0.25100
C567        C  0.25768875  0.37219837  0.58228021    -0.18200
C568        C  0.23097571  0.35650410  0.59412191    -0.08200
C569        C  0.31312025  0.41971188  0.57502329    -0.18500
C570        C  0.31325762  0.41347774  0.55660452    -0.23300
C571        C  0.34310100  0.42730367  0.54517313     0.27100
C572        C  0.34088251  0.42926106  0.52562595    -0.20000
C573        C  0.36826371  0.44073130  0.51430075    -0.09700
C574        C  0.39839231  0.45017945  0.52232047    -0.10200
C575        C  0.40053328  0.44796283  0.54190124    -0.03200
C576        C  0.37320755  0.43657723  0.55320086    -0.18300
H577        H  0.25416828  0.41499220  0.62751539     0.10800
H578        H  0.30146177  0.44240725  0.60689674     0.10900
H579        H  0.25841690  0.35934493  0.57002539     0.10500
H580        H  0.21175650  0.33240460  0.59045795     0.11700
H581        H  0.33531530  0.43770758  0.58182196     0.11700
H582        H  0.29056044  0.39802255  0.54941966     0.13600
H583        H  0.31787472  0.42190497  0.51910114     0.10200
H584        H  0.36580652  0.44215876  0.49927630     0.12300
H585        H  0.42332667  0.45481076  0.54853841     0.08900
H586        H  0.37568836  0.43435062  0.56813062     0.11600
C587        C  0.04707682  0.44004781  0.52496612    -0.03000
C588        C  0.06200271  0.42393174  0.51768244    -0.05600
C589        C  0.07383442  0.40954583  0.52977211    -0.20700
C590        C  0.07122787  0.41121063  0.54933538     0.25100
C591        C  0.05572156  0.42678982  0.55658032    -0.18200
C592        C  0.04394667  0.44112600  0.54454771    -0.08200
C593        C  0.08407430  0.39569628  0.56173249    -0.18500
C594        C  0.09260314  0.40444515  0.57976828    -0.23300
C595        C  0.10591316  0.38923219  0.59201900     0.27100
C596        C  0.12593765  0.40705709  0.60711286    -0.20000
C597        C  0.13970151  0.39383001  0.61857541    -0.09700
C598        C  0.13311733  0.36228894  0.61532324    -0.10200
C599        C  0.11243549  0.34413502  0.60058904    -0.03200
C600        C  0.09877436  0.35734178  0.58910161    -0.18300
H601        H  0.06461872  0.42250136  0.50267421     0.10800
H602        H  0.08533625  0.39733517  0.52383143     0.10900
H603        H  0.05209587  0.42757407  0.57150467     0.10500
H604        H  0.03223426  0.45299377  0.55066226     0.11700
H605        H  0.08810546  0.37758388  0.55543094     0.11700
H606        H  0.09167675  0.42476502  0.58555581     0.13600
H607        H  0.13157341  0.43156679  0.60975029     0.10200
H608        H  0.15601137  0.40844153  0.62969611     0.12300
H609        H  0.10689678  0.31965316  0.59795008     0.08900
H610        H  0.08252529  0.34241744  0.57806641     0.11600
C611        C  0.02987924  0.06007368  0.70974325    -0.03000
C612        C  0.01609674  0.07923313  0.71229155    -0.05600
C613        C  0.02926998  0.10930463  0.70344285    -0.20700
C614        C  0.05667111  0.12106957  0.69195016     0.25100
C615        C  0.06953967  0.10105096  0.68867344    -0.18200
C616        C  0.05612491  0.07072937  0.69748234    -0.08200
C617        C  0.07062707  0.15414664  0.68372222    -0.18500
C618        C  0.10137520  0.17251809  0.67767700    -0.23300
C619        C  0.11525850  0.20587410  0.66985183     0.27100
C620        C  0.14241307  0.21812870  0.65810720    -0.20000
C621        C  0.15576708  0.24884945  0.65000597    -0.09700
C622        C  0.14243637  0.26816515  0.65359050    -0.10200
C623        C  0.11624638  0.25677307  0.66595510    -0.03200
C624        C  0.10269393  0.22588194  0.67401911    -0.18300
H625        H  0.99574768  0.07133294  0.72167909     0.10800
H626        H  0.01856834  0.12389543  0.70605838     0.10900
H627        H  0.08994977  0.10864574  0.67943689     0.10500
H628        H  0.06702483  0.05619826  0.69534822     0.11700
H629        H  0.05488144  0.16394432  0.68316797     0.11700
H630        H  0.11715934  0.16275935  0.67811770     0.13600
H631        H  0.15294899  0.20358739  0.65486420     0.10200
H632        H  0.17628681  0.25739991  0.64069649     0.12300
H633        H  0.10573476  0.27142238  0.66894630     0.08900
H634        H  0.08255891  0.21795592  0.68352161     0.11600
C635        C  0.43694038  0.46168784  0.71330558    -0.03000
C636        C  0.41240094  0.43143414  0.72000270    -0.05600
C637        C  0.38114375  0.41712156  0.71291503    -0.20700
C638        C  0.37413801  0.43181240  0.69826340     0.25100
C639        C  0.39910777  0.46087022  0.69049252    -0.18200
C640        C  0.43035164  0.47586889  0.69808574    -0.08200
C641        C  0.34029609  0.41695784  0.69196573    -0.18500
C642        C  0.33207365  0.41134712  0.67379418    -0.23300
C643        C  0.29796782  0.39375380  0.66755354     0.27100
C644        C  0.28890522  0.37189312  0.65260928    -0.20000
C645        C  0.25747861  0.35645434  0.64560460    -0.09700
C646        C  0.23488328  0.36373603  0.65282692    -0.10200
C647        C  0.24339570  0.38437987  0.66838247    -0.03200
C648        C  0.27474210  0.39928205  0.67574303    -0.18300
H649        H  0.41714699  0.41944295  0.73129904     0.10800
H650        H  0.36232398  0.39455183  0.71893139     0.10900
H651        H  0.39409717  0.47262089  0.67916654     0.10500
H652        H  0.44889505  0.49913560  0.69267275     0.11700
H653        H  0.32151671  0.40758805  0.70261701     0.11700
H654        H  0.35075843  0.41755979  0.66333514     0.13600
H655        H  0.30627108  0.36696242  0.64624719     0.10200
H656        H  0.25118632  0.33985286  0.63393018     0.12300
H657        H  0.22638222  0.39016944  0.67426565     0.08900
H658        H  0.28120106  0.41618043  0.68726438     0.11600
C659        C  0.03335921  0.46485846  0.71120779    -0.03000
C660        C  0.01529357  0.44213555  0.69724332    -0.05600
C661        C  0.02795234  0.42556246  0.68783313    -0.20700
C662        C  0.05883302  0.43128521  0.69224148     0.25100
C663        C  0.07745765  0.45527508  0.70561954    -0.18200
C664        C  0.06486690  0.47189118  0.71491120    -0.08200
C665        C  0.07097812  0.41239057  0.68228753    -0.18500
C666        C  0.09493786  0.40843000  0.68886323    -0.23300
C667        C  0.10772654  0.39043976  0.67859828     0.27100
C668        C  0.13956974  0.39826941  0.68208760    -0.20000
C669        C  0.15319017  0.38334878  0.67195585    -0.09700
C670        C  0.13516988  0.36017793  0.65820476    -0.10200
C671        C  0.10269287  0.35077389  0.65553055    -0.03200
C672        C  0.08909108  0.36578042  0.66556592    -0.18300
H673        H  0.49103562  0.43647537  0.69404177     0.10800
H674        H  0.01326777  0.40765905  0.67736041     0.10900
H675        H  0.10186743  0.46164541  0.70887493     0.10500
H676        H  0.07971783  0.49015500  0.72516470     0.11700
H677        H  0.05940838  0.40119327  0.66908815     0.11700
H678        H  0.10660832  0.41960600  0.70203504     0.13600
H679        H  0.15433053  0.41680831  0.69224508     0.10200
H680        H  0.17820653  0.39096170  0.67428380     0.12300
H681        H  0.08808053  0.33235611  0.64528219     0.08900
H682        H  0.06407877  0.35801586  0.66302866     0.11600
C683        C  0.16705467  0.83455536  0.61609129     0.45700
H684        H  0.16557742  0.83525854  0.60054600    -0.03400
C685        C  0.17019206  0.83261609  0.65255642     0.45700
H686        H  0.17154340  0.83159173  0.66808690    -0.03400
C687        C  0.20155006  0.85357033  0.62359819    -0.17100
C688        C  0.14922510  0.84866434  0.62618576    -0.16800
C689        C  0.15287130  0.80044339  0.62394760    -0.17200
C690        C  0.20352895  0.85197752  0.64282582    -0.17200
C691        C  0.15075229  0.84789127  0.64544617    -0.16700
C692        C  0.15410391  0.79897229  0.64310871    -0.17000
C693        C  0.16882338  0.83380610  0.81067052     0.45700
H694        H  0.16932309  0.83392538  0.79507540    -0.03400
C695        C  0.16802476  0.83374726  0.84724864     0.45700
H696        H  0.16778392  0.83360134  0.86283991    -0.03400
C697        C  0.15244678  0.79970226  0.81943178    -0.17100
C698        C  0.20269426  0.85219714  0.81967275    -0.16800
C699        C  0.15107885  0.84980239  0.81920380    -0.17200
C700        C  0.15212306  0.79980203  0.83871517    -0.17200
C701        C  0.20192096  0.85219104  0.83891629    -0.16700
C702        C  0.15044560  0.84936238  0.83850816    -0.17000
C703        C  0.00435941  0.49922972  0.75057968     0.45700
H704        H  0.00547162  0.50042354  0.76616077    -0.03400
C705        C  0.00147176  0.49619145  0.71390114     0.45700
H706        H  0.00000735  0.99504088  0.69825262    -0.03400
C707        C  0.46967104  0.98183260  0.74275708    -0.17100
C708        C  0.02101715  0.53251730  0.74098632    -0.16800
C709        C  0.01970987  0.98122600  0.74178519    -0.17200
C710        C  0.46797489  0.97942719  0.72348696    -0.17200
C711        C  0.01921312  0.53099860  0.72169864    -0.16700
C712        C  0.01875769  0.98016791  0.72247999    -0.17000
C713        C  0.33842037  0.66219132  0.31081725     0.45700
H714        H  0.33751486  0.66126210  0.29523155    -0.03400
C715        C  0.34135626  0.66491317  0.34731566     0.45700
H716        H  0.34247743  0.66616493  0.36289367    -0.03400
C717        C  0.35805075  0.69692768  0.31866765    -0.17100
C718        C  0.30508370  0.64722406  0.32036270    -0.16800
C719        C  0.35439751  0.64467140  0.31951647    -0.17200
C720        C  0.35961071  0.69804034  0.33789005    -0.17200
C721        C  0.30689269  0.64895217  0.33964958    -0.16700
C722        C  0.35558707  0.64582435  0.33879077    -0.17000
C723        C  0.33835587  0.66174737  0.15326150     0.45700
H724        H  0.33806135  0.66115224  0.16885475    -0.03400
C725        C  0.33915711  0.66357471  0.11670487     0.45700
H726        H  0.33930735  0.66433661  0.10110785    -0.03400
C727        C  0.30463492  0.64681250  0.14433674    -0.17100
C728        C  0.35742751  0.69631524  0.14509682    -0.16800
C729        C  0.35360985  0.64371392  0.14413663    -0.17200
C730        C  0.30523167  0.64789923  0.12507984    -0.17200
C731        C  0.35765729  0.69698691  0.12583100    -0.16700
C732        C  0.35351458  0.64439722  0.12483603    -0.17000
C733        C  0.00522082  0.99815803  0.21374867     0.45700
H734        H  0.00605511  0.99774644  0.19816569    -0.03400
C735        C  0.00322391  0.99882547  0.25037405     0.45700
H736        H  0.00237647  0.99904559  0.26596032    -0.03400
C737        C  0.48826445  0.96433776  0.22267610    -0.17100
C738        C  0.03876555  0.51640398  0.22309704    -0.16800
C739        C  0.48736349  0.51421330  0.22165733    -0.17200
C740        C  0.48700287  0.96465748  0.24192325    -0.17200
C741        C  0.03774443  0.51653269  0.24239754    -0.16700
C742        C  0.48654910  0.51474587  0.24096660    -0.17000
O743        O  0.01311408  0.55892470  0.95637311    -0.78300
C744        C  0.43194939  0.95929634  0.94952233     0.82800
O745        O  0.47368129  0.51721852  0.01855640    -0.79400
O746        O  0.46379007  0.91827067  0.99432152    -0.80900
O747        O  0.05974140  0.99301538  0.95906370    -0.80700
O748        O  0.06029322  0.56178540  0.95980539    -0.79300
Zn749      Zn  0.48096776  0.51947176  0.97154509     1.55700
O750        O  0.01339316  0.94580918  0.95672002    -0.80700
Cd751      Cd  0.04902753  0.52135887  0.97550730     1.59700
Cd752      Cd  0.99824321  0.49585489  0.00959320     1.59600
O753        O  0.07822696  0.53541393  0.99929206    -0.80700
O754        O  0.00208001  0.49753849  0.98191908    -1.91200
Cd755      Cd  0.48124363  0.95195176  0.97263386     1.59900
O756        O  0.04237629  0.51838196  0.02251366    -0.80700
O757        O  0.44298250  0.94196327  0.95546347    -0.79300
C758        C  0.46079536  0.53100717  0.01017543     0.83200
C759        C  0.04335146  0.57272313  0.95308188     0.82900
O760        O  0.44441720  0.98885868  0.95442665    -0.78300
C761        C  0.04316709  0.96424891  0.95268439     0.83700
O762        O  0.46183009  0.53387796  0.99232184    -0.78400
C763        C  0.07140332  0.53222763  0.01676038     0.83800
C764        C  0.46249570  0.92159726  0.01200307     0.84100
O765        O  0.47392636  0.94932036  0.01950656    -0.80800
O766        O  0.49287027  0.93617133  0.45606333    -0.78300
C767        C  0.07898946  0.53149660  0.45266571     0.82800
O768        O  0.02164326  0.97022079  0.51999577    -0.79400
O769        O  0.04589859  0.57467143  0.49720448    -0.81900
O770        O  0.45636661  0.51139122  0.45493043    -0.80700
O771        O  0.44841460  0.93899155  0.45467432    -0.79300
Zn772      Zn  0.02394663  0.97298077  0.47285370     1.55700
O773        O  0.50498911  0.55619517  0.45640361    -0.80700
Cd774      Cd  0.45975668  0.97831718  0.47145105     1.59700
Cd775      Cd  0.00130781  0.99483933  0.50925472     1.59600
O776        O  0.42543235  0.96372537  0.49261781    -0.80700
O777        O  0.00446318  0.99734565  0.48155225    -1.91200
Cd778      Cd  0.03116968  0.54388240  0.47396692     1.59900
O779        O  0.45456042  0.97266322  0.51849273    -0.80700
O780        O  0.07055221  0.55108656  0.45847815    -0.79300
C781        C  0.03456333  0.95574621  0.51244963     0.83200
C782        C  0.46438648  0.92578126  0.44994447     0.82900
O783        O  0.06340604  0.50163678  0.45723489    -0.78300
C784        C  0.47607421  0.54067861  0.45027169     0.83700
O785        O  0.03700410  0.95473644  0.49465015    -0.78400
C786        C  0.42760537  0.96277302  0.51042076     0.83800
C787        C  0.04004338  0.56868959  0.51469305     0.84100
O788        O  0.02387462  0.53989274  0.52092525    -0.80800
C789        C  0.09749210  0.54426675  0.03093323    -0.03000
C790        C  0.08972207  0.53856092  0.05012905    -0.05600
C791        C  0.11394258  0.54888045  0.06363502    -0.20700
C792        C  0.14649723  0.56551929  0.05835493     0.25100
C793        C  0.15442677  0.57114612  0.03914916    -0.18200
C794        C  0.13012417  0.56064785  0.02557842    -0.08200
C795        C  0.17133001  0.57591918  0.07326167    -0.18500
C796        C  0.20136001  0.60166827  0.07140381    -0.23300
C797        C  0.22625041  0.61317759  0.08637217     0.27100
C798        C  0.25257854  0.64502300  0.08526351    -0.20000
C799        C  0.27755392  0.65654709  0.09833923    -0.09700
C800        C  0.27672687  0.63644966  0.11280717    -0.10200
C801        C  0.25027283  0.60474267  0.11423074    -0.03200
C802        C  0.22523339  0.59309322  0.10108191    -0.18300
H803        H  0.06490397  0.02570969  0.05484312     0.10800
H804        H  0.10720743  0.54404365  0.07830552     0.10900
H805        H  0.17926310  0.58304365  0.03451065     0.10500
H806        H  0.13688437  0.56513414  0.01090749     0.11700
H807        H  0.16379429  0.56316304  0.08655725     0.11700
H808        H  0.20769055  0.61606835  0.05867405     0.13600
H809        H  0.25403507  0.66095755  0.07408420     0.10200
H810        H  0.29784002  0.68108878  0.09699057     0.12300
H811        H  0.24963434  0.58861711  0.12503013     0.08900
H812        H  0.20589226  0.56811580  0.10215125     0.11600
C813        C  0.36982619  0.72654719  0.11439820    -0.03000
C814        C  0.35669231  0.74637613  0.11646200    -0.05600
C815        C  0.36699159  0.77331648  0.10485309    -0.20700
C816        C  0.39011101  0.78041422  0.09083723     0.25100
C817        C  0.40369897  0.76083521  0.08911948    -0.18200
C818        C  0.39347894  0.73403939  0.10076860    -0.08200
C819        C  0.40029235  0.80882391  0.07854602    -0.18500
C820        C  0.41061705  0.81010069  0.06084155    -0.23300
C821        C  0.42229658  0.83879004  0.04854541     0.27100
C822        C  0.42214773  0.83476478  0.02902086    -0.20000
C823        C  0.43466763  0.86151860  0.01702620    -0.09700
C824        C  0.44784105  0.89286938  0.02439247    -0.10200
C825        C  0.44778232  0.89682093  0.04395526    -0.03200
C826        C  0.43529374  0.87014217  0.05590607    -0.18300
H827        H  0.33815951  0.74069184  0.12686142     0.10800
H828        H  0.35645755  0.78826687  0.10656246     0.10900
H829        H  0.42251460  0.76637173  0.07897319     0.10500
H830        H  0.40434315  0.71943218  0.09929514     0.11700
H831        H  0.39784841  0.82846544  0.08401015     0.11700
H832        H  0.40976427  0.78895306  0.05485951     0.13600
H833        H  0.41248825  0.81084595  0.02303976     0.10200
H834        H  0.93438305  0.85767811  0.00203280     0.12300
H835        H  0.45795939  0.92066345  0.05012639     0.08900
H836        H  0.43681986  0.87438688  0.07088082     0.11600
C837        C  0.44445503  0.54378410  0.02181298    -0.03000
C838        C  0.43155666  0.56136424  0.01389574    -0.05600
C839        C  0.41712881  0.57399073  0.02535934    -0.20700
C840        C  0.41505014  0.56903547  0.04488463     0.25100
C841        C  0.42786876  0.55131991  0.05273963    -0.18200
C842        C  0.44221991  0.53877313  0.04134624    -0.08200
C843        C  0.40165320  0.58465151  0.05676988    -0.18500
C844        C  0.39112393  0.57530491  0.07450178    -0.23300
C845        C  0.38128969  0.59325827  0.08709686     0.27100
C846        C  0.36171885  0.57733695  0.10272596    -0.20000
C847        C  0.35288279  0.59389079  0.11517499    -0.09700
C848        C  0.36387981  0.62680868  0.11233691    -0.10200
C849        C  0.38355285  0.64272288  0.09682650    -0.03200
C850        C  0.39244286  0.62630011  0.08442461    -0.18300
H851        H  0.43298008  0.56572078  0.99891489     0.10800
H852        H  0.40778729  0.58789553  0.01897930     0.10900
H853        H  0.42788696  0.54785740  0.06773130     0.10500
H854        H  0.45202194  0.52547529  0.04797200     0.11700
H855        H  0.40044788  0.60453789  0.05055283     0.11700
H856        H  0.38922811  0.55346468  0.08009490     0.13600
H857        H  0.35304436  0.55197473  0.10521869     0.10200
H858        H  0.33713950  0.58090549  0.12686238     0.12300
H859        H  0.39237854  0.66802372  0.09436984     0.08900
H860        H  0.40855274  0.63985359  0.07301733     0.11600
C861        C  0.37218244  0.72607367  0.15678148    -0.03000
C862        C  0.35372706  0.73049419  0.17029591    -0.05600
C863        C  0.36619364  0.76039583  0.17938878    -0.20700
C864        C  0.39749582  0.78618079  0.17535853     0.25100
C865        C  0.41625945  0.78124617  0.16219738    -0.18200
C866        C  0.40377019  0.75145626  0.15311604    -0.08200
C867        C  0.40916910  0.81835735  0.18421607    -0.18500
C868        C  0.44072358  0.84060577  0.18653141    -0.23300
C869        C  0.45273371  0.87302309  0.19502983     0.27100
C870        C  0.48261648  0.88821973  0.20431491    -0.20000
C871        C  0.49463476  0.91847618  0.21274655    -0.09700
C872        C  0.47731440  0.93440596  0.21168872    -0.10200
C873        C  0.44815415  0.92010797  0.20173390    -0.03200
C874        C  0.43576852  0.88947908  0.19356051    -0.18300
H875        H  0.32918964  0.71131880  0.17319454     0.10800
H876        H  0.35116574  0.76357925  0.18937684     0.10900
H877        H  0.44011801  0.80063355  0.15829318     0.10500
H878        H  0.41843722  0.74853096  0.14273462     0.11700
H879        H  0.39114397  0.82339869  0.18949295     0.11700
H880        H  0.45866872  0.83435661  0.18299259     0.13600
H881        H  0.99633394  0.87627125  0.20544049     0.10200
H882        H  0.01716532  0.92923965  0.22043971     0.12300
H883        H  0.43448861  0.93214180  0.20087917     0.08900
H884        H  0.41311774  0.87887781  0.18604202     0.11600
C885        C  0.47205934  0.52731675  0.20936327    -0.03000
C886        C  0.49025225  0.55023017  0.19552572    -0.05600
C887        C  0.47678448  0.56512903  0.18525500    -0.20700
C888        C  0.44496651  0.55741675  0.18868885     0.25100
C889        C  0.42626755  0.53312400  0.20189512    -0.18200
C890        C  0.43971326  0.51821067  0.21209261    -0.08200
C891        C  0.43206032  0.57490661  0.17811534    -0.18500
C892        C  0.40814185  0.57892054  0.18463814    -0.23300
C893        C  0.39527687  0.59677920  0.17437263     0.27100
C894        C  0.36467052  0.59125301  0.17928610    -0.20000
C895        C  0.35139213  0.60710579  0.16980914    -0.09700
C896        C  0.36847135  0.62870019  0.15520125    -0.10200
C897        C  0.39959411  0.63532931  0.15077840    -0.03200
C898        C  0.41290361  0.61957510  0.16023296    -0.18300
H899        H  0.51519965  0.55741085  0.19314512     0.10800
H900        H  0.49154143  0.58338142  0.17495891     0.10900
H901        H  0.40125311  0.52541895  0.20436960     0.10500
H902        H  0.42502329  0.49991802  0.22238261     0.11700
H903        H  0.44340645  0.58541106  0.16476628     0.11700
H904        H  0.39709925  0.56850172  0.19807606     0.13600
H905        H  0.35075007  0.57419200  0.19029723     0.10200
H906        H  0.32746780  0.60185189  0.17354147     0.12300
H907        H  0.41357363  0.65264750  0.13988842     0.08900
H908        H  0.43706993  0.62570769  0.15650548     0.11600
C909        C  0.27517578  0.63652887  0.15551106    -0.03000
C910        C  0.26009578  0.65472295  0.15489537    -0.05600
C911        C  0.23104308  0.64409653  0.16441007    -0.20700
C912        C  0.21625471  0.61476960  0.17436834     0.25100
C913        C  0.23207270  0.59713135  0.17548114    -0.18200
C914        C  0.26141972  0.60806061  0.16616516    -0.08200
C915        C  0.18448503  0.60338987  0.18345335    -0.18500
C916        C  0.16210618  0.57174328  0.18553575    -0.23300
C917        C  0.12971182  0.55931295  0.19413289     0.27100
C918        C  0.10568012  0.52679411  0.19103984    -0.20000
C919        C  0.07556257  0.51329422  0.19979285    -0.09700
C920        C  0.06908494  0.53193296  0.21205382    -0.10200
C921        C  0.09257873  0.56467514  0.21480388    -0.03200
C922        C  0.12267186  0.57827916  0.20598531    -0.18300
H923        H  0.27067832  0.67696313  0.14684609     0.10800
H924        H  0.21962066  0.65835000  0.16355904     0.10900
H925        H  0.22188891  0.57497439  0.18354744     0.10500
H926        H  0.27291447  0.59387540  0.16683469     0.11700
H927        H  0.17874502  0.62163261  0.18725059     0.11700
H928        H  0.16721447  0.55384340  0.18003696     0.13600
H929        H  0.11041951  0.51159514  0.18204573     0.10200
H930        H  0.05736904  0.98807838  0.19722898     0.12300
H931        H  0.08791987  0.57943695  0.22422800     0.08900
H932        H  0.14055040  0.60320383  0.20908117     0.11600
C933        C  0.10684578  0.54345792  0.43972054    -0.03000
C934        C  0.11841573  0.52327943  0.43419855    -0.05600
C935        C  0.14327001  0.53391490  0.42099875    -0.20700
C936        C  0.15716088  0.56491394  0.41302897     0.25100
C937        C  0.14551991  0.58509439  0.41855198    -0.18200
C938        C  0.12084492  0.57454893  0.43183166    -0.08200
C939        C  0.18274155  0.57472763  0.39853930    -0.18500
C940        C  0.20327460  0.60573769  0.39355547    -0.23300
C941        C  0.22902201  0.61579180  0.37921119     0.27100
C942        C  0.25523259  0.64777708  0.37965444    -0.20000
C943        C  0.28019388  0.65842801  0.36661119    -0.09700
C944        C  0.27924367  0.63745592  0.35266481    -0.10200
C945        C  0.25287448  0.60559822  0.35189501    -0.03200
C946        C  0.22782989  0.59484335  0.36500130    -0.18300
H947        H  0.10803105  0.49910151  0.43991588     0.10800
H948        H  0.15155443  0.51776443  0.41691622     0.10900
H949        H  0.15460583  0.60870204  0.41235524     0.10500
H950        H  0.11215252  0.59050963  0.43553976     0.11700
H951        H  0.18541362  0.55567830  0.39235136     0.11700
H952        H  0.20255411  0.62502603  0.40092714     0.13600
H953        H  0.25661708  0.66450488  0.39029684     0.10200
H954        H  0.30032497  0.68314284  0.36739849     0.12300
H955        H  0.25184827  0.58899836  0.34128701     0.08900
H956        H  0.20759746  0.57031733  0.36381107     0.11600
C957        C  0.37637576  0.72787321  0.34913879    -0.03000
C958        C  0.40623068  0.73715258  0.35731878    -0.05600
C959        C  0.42137484  0.76429321  0.36895737    -0.20700
C960        C  0.40657305  0.78215562  0.37286885     0.25100
C961        C  0.37692198  0.77320436  0.36419978    -0.18200
C962        C  0.36193967  0.74617466  0.35241314    -0.08200
C963        C  0.42288559  0.80998888  0.38593993    -0.18500
C964        C  0.40665953  0.81975210  0.39676051    -0.23300
C965        C  0.42230796  0.84680678  0.41046166     0.27100
C966        C  0.40481417  0.86079914  0.41685564    -0.20000
C967        C  0.41833247  0.88621530  0.42977993    -0.09700
C968        C  0.44967009  0.89809673  0.43673672    -0.10200
C969        C  0.46703136  0.88374663  0.43060254    -0.03200
C970        C  0.45350437  0.85831384  0.41766113    -0.18300
H971        H  0.41785717  0.72347277  0.35460273     0.10800
H972        H  0.44438478  0.77096391  0.37524620     0.10900
H973        H  0.36535384  0.78706526  0.36636845     0.10500
H974        H  0.33891314  0.73924458  0.34605269     0.11700
H975        H  0.44890087  0.82177822  0.38705037     0.11700
H976        H  0.38057528  0.80745798  0.39560361     0.13600
H977        H  0.38064650  0.85221835  0.41169518     0.10200
H978        H  0.40424295  0.89665474  0.43423482     0.12300
H979        H  0.99114841  0.89218466  0.43578072     0.08900
H980        H  0.46748725  0.84759180  0.41365360     0.11600
C981        C  0.46498532  0.55685016  0.43723384    -0.03000
C982        C  0.48646907  0.58824914  0.43052406    -0.05600
C983        C  0.47585757  0.60314310  0.41801354    -0.20700
C984        C  0.44372365  0.58688090  0.41182009     0.25100
C985        C  0.42211440  0.55565100  0.41872793    -0.18200
C986        C  0.43268009  0.54077982  0.43122279    -0.08200
C987        C  0.43317217  0.60357906  0.39877075    -0.18500
C988        C  0.40822474  0.58752328  0.38684755    -0.23300
C989        C  0.39639742  0.60369511  0.37425878     0.27100
C990        C  0.37732810  0.58653518  0.35874371    -0.20000
C991        C  0.36428960  0.60021395  0.34710119    -0.09700
C992        C  0.37024828  0.63147006  0.35068364    -0.10200
C993        C  0.38904399  0.64851405  0.36629695    -0.03200
C994        C  0.40198294  0.63483627  0.37798868    -0.18300
H995        H  0.51150583  0.60129695  0.43488374     0.10800
H996        H  0.49286411  0.62735091  0.41303366     0.10900
H997        H  0.39688720  0.54281076  0.41481669     0.10500
H998        H  0.41541583  0.51670032  0.43625241     0.11700
H999        H  0.44725754  0.62983791  0.39856076     0.11700
H1000       H  0.39634151  0.56135747  0.38583373     0.13600
H1001       H  0.37217486  0.56228694  0.35574740     0.10200
H1002       H  0.34887621  0.58599418  0.33559827     0.12300
H1003       H  0.39359291  0.67239070  0.36961035     0.08900
H1004       H  0.41552127  0.64844052  0.39016853     0.11600
C1005       C  0.37288757  0.72618315  0.30662889    -0.03000
C1006       C  0.35412157  0.73035264  0.29324577    -0.05600
C1007       C  0.36696359  0.75944675  0.28329428    -0.20700
C1008       C  0.39867712  0.78489273  0.28666015     0.25100
C1009       C  0.41800463  0.77995724  0.29935495    -0.18200
C1010       C  0.40522677  0.75078534  0.30916212    -0.08200
C1011       C  0.41087420  0.81595197  0.27648455    -0.18500
C1012       C  0.43379209  0.84481135  0.28346320    -0.23300
C1013       C  0.44600992  0.87599606  0.27335467     0.27100
C1014       C  0.47683851  0.90221175  0.27779467    -0.20000
C1015       C  0.48982407  0.93145445  0.26796687    -0.09700
C1016       C  0.47211226  0.93495879  0.25358868    -0.10200
C1017       C  0.44060817  0.90951324  0.24985709    -0.03200
C1018       C  0.42764858  0.88028401  0.25960008    -0.18300
H1019       H  0.32918859  0.71155228  0.29098367     0.10800
H1020       H  0.35178089  0.76246163  0.27334472     0.10900
H1021       H  0.44299918  0.79841774  0.30166867     0.10500
H1022       H  0.42054244  0.74754488  0.31886484     0.11700
H1023       H  0.39984664  0.81479504  0.26302915     0.11700
H1024       H  0.44465769  0.84576631  0.29696049     0.13600
H1025       H  0.99126303  0.89975563  0.28854878     0.10200
H1026       H  0.01408533  0.95095014  0.27115494     0.12300
H1027       H  0.42609013  0.91219966  0.23928131     0.08900
H1028       H  0.40323838  0.86133321  0.25636097     0.11600
C1029       C  0.47140050  0.52955611  0.25192312    -0.03000
C1030       C  0.44776942  0.51122124  0.26537346    -0.05600
C1031       C  0.43105040  0.52400061  0.27436186    -0.20700
C1032       C  0.43806170  0.55550326  0.27028840     0.25100
C1033       C  0.46257828  0.57419750  0.25720853    -0.18200
C1034       C  0.47921100  0.56138173  0.24823220    -0.08200
C1035       C  0.41821341  0.56736828  0.27912352    -0.18500
C1036       C  0.42849078  0.59899660  0.28125737    -0.23300
C1037       C  0.40863587  0.61067929  0.29017926     0.27100
C1038       C  0.42433221  0.64015544  0.29995197    -0.20000
C1039       C  0.40653296  0.65152361  0.30903547    -0.09700
C1040       C  0.37273948  0.63392665  0.30818922    -0.10200
C1041       C  0.35688554  0.60525371  0.29771329    -0.03200
C1042       C  0.37469698  0.59352744  0.28885246    -0.18300
H1043       H  0.44110141  0.98658165  0.26816103     0.10800
H1044       H  0.41226766  0.50908233  0.28434037     0.10900
H1045       H  0.46826775  0.59826625  0.25333231     0.10500
H1046       H  0.99761147  0.57600730  0.23799615     0.11700
H1047       H  0.39477522  0.54935011  0.28467672     0.11700
H1048       H  0.45307703  0.61711715  0.27747624     0.13600
H1049       H  0.45041721  0.65399039  0.30097501     0.10200
H1050       H  0.41906883  0.67379832  0.31704352     0.12300
H1051       H  0.33078745  0.59144222  0.29695482     0.08900
H1052       H  0.36192575  0.57119639  0.28095195     0.11600
C1053       C  0.06683400  0.53103018  0.25453780    -0.03000
C1054       C  0.07147511  0.55375763  0.26834574    -0.05600
C1055       C  0.10032807  0.56957101  0.27859388    -0.20700
C1056       C  0.12499179  0.56294364  0.27518471     0.25100
C1057       C  0.11937507  0.53874636  0.26204716    -0.18200
C1058       C  0.09059163  0.52298213  0.25186752    -0.08200
C1059       C  0.15591983  0.58122195  0.28576123    -0.18500
C1060       C  0.18409605  0.58533464  0.27939056    -0.23300
C1061       C  0.21518588  0.60267137  0.28985392     0.27100
C1062       C  0.23953921  0.59621554  0.28516821    -0.20000
C1063       C  0.26888399  0.61118936  0.29486013    -0.09700
C1064       C  0.27455981  0.63302097  0.30943913    -0.10200
C1065       C  0.25090023  0.64074073  0.31359141    -0.03200
C1066       C  0.22143005  0.62563145  0.30397413    -0.18300
H1067       H  0.05323816  0.56001545  0.27075545     0.10800
H1068       H  0.10373112  0.58762032  0.28887937     0.10900
H1069       H  0.13695022  0.53166603  0.25962865     0.10500
H1070       H  0.08700022  0.50470877  0.24169908     0.11700
H1071       H  0.15526819  0.59186808  0.29904098     0.11700
H1072       H  0.18458267  0.57493000  0.26598344     0.13600
H1073       H  0.23560652  0.57900752  0.27418503     0.10200
H1074       H  0.28685579  0.60508124  0.29126924     0.12300
H1075       H  0.25517698  0.65841546  0.32433102     0.08900
H1076       H  0.20392308  0.63234255  0.30752175     0.11600
C1077       C  0.05933484  0.60179438  0.94084477    -0.03000
C1078       C  0.09243179  0.61659516  0.93673735    -0.05600
C1079       C  0.10740488  0.64303060  0.92454536    -0.20700
C1080       C  0.08972151  0.65524060  0.91602130     0.25100
C1081       C  0.05676332  0.64104472  0.92049738    -0.18200
C1082       C  0.04173887  0.61453635  0.93272637    -0.08200
C1083       C  0.10679602  0.68311833  0.90290650    -0.18500
C1084       C  0.09174275  0.69041325  0.88959201    -0.23300
C1085       C  0.10870192  0.71798844  0.87622183     0.27100
C1086       C  0.09194249  0.71864011  0.86027522    -0.20000
C1087       C  0.10627539  0.74465898  0.84772662    -0.09700
C1088       C  0.13776706  0.77059439  0.85085443    -0.10200
C1089       C  0.15467917  0.77000610  0.86669070    -0.03200
C1090       C  0.14035376  0.74408443  0.87928941    -0.18300
H1091       H  0.10680907  0.60755547  0.94278900     0.10800
H1092       H  0.13287408  0.65369705  0.92154346     0.10900
H1093       H  0.04250046  0.65042604  0.91478013     0.10500
H1094       H  0.01629308  0.60392540  0.93573470     0.11700
H1095       H  0.13291688  0.69688289  0.90371956     0.11700
H1096       H  0.06585918  0.67484193  0.88782617     0.13600
H1097       H  0.06744504  0.69912739  0.85764559     0.10200
H1098       H  0.09234874  0.74498816  0.83593429     0.12300
H1099       H  0.17892066  0.78991662  0.86947088     0.08900
H1100       H  0.15396331  0.74525011  0.89159173     0.11600
C1101       C  0.23059346  0.86833539  0.85106818    -0.03000
C1102       C  0.23904208  0.89782612  0.85959949    -0.05600
C1103       C  0.26573995  0.91303567  0.87148006    -0.20700
C1104       C  0.28412955  0.89876296  0.87519481     0.25100
C1105       C  0.27583858  0.86932066  0.86633876    -0.18200
C1106       C  0.24916237  0.85420839  0.85435323    -0.08200
C1107       C  0.31227011  0.91579616  0.88791457    -0.18500
C1108       C  0.32293647  0.90015486  0.89856131    -0.23300
C1109       C  0.35086823  0.91638694  0.91164178     0.27100
C1110       C  0.36249235  0.89771865  0.91958491    -0.20000
C1111       C  0.38874365  0.91160777  0.93186581    -0.09700
C1112       C  0.40396666  0.94458736  0.93659646    -0.10200
C1113       C  0.39217295  0.96326944  0.92885812    -0.03200
C1114       C  0.36589744  0.94938161  0.91655948    -0.18300
H1115       H  0.22531053  0.90934750  0.85678400     0.10800
H1116       H  0.27190928  0.93588700  0.87791657     0.10900
H1117       H  0.29012650  0.85818902  0.86838294     0.10500
H1118       H  0.24292796  0.83151458  0.84767926     0.11700
H1119       H  0.32353140  0.94184303  0.88877698     0.11700
H1120       H  0.31055397  0.87393219  0.89774871     0.13600
H1121       H  0.35132680  0.87224426  0.91619050     0.10200
H1122       H  0.39709258  0.89643916  0.93764666     0.12300
H1123       H  0.40324814  0.98870367  0.93230201     0.08900
H1124       H  0.35754782  0.96473810  0.91122955     0.11600
C1125       C  0.13514111  0.86290753  0.85048440    -0.03000
C1126       C  0.10411068  0.85696512  0.84653586    -0.05600
C1127       C  0.08938702  0.86839085  0.85860441    -0.20700
C1128       C  0.10533231  0.88582208  0.87485407     0.25100
C1129       C  0.13613620  0.89112299  0.87895213    -0.18200
C1130       C  0.15082839  0.87988584  0.86685998    -0.08200
C1131       C  0.08854136  0.89666021  0.88765378    -0.18500
C1132       C  0.10413414  0.92043783  0.90040158    -0.23300
C1133       C  0.08768372  0.93078378  0.91378361     0.27100
C1134       C  0.10601408  0.96090471  0.92268901    -0.20000
C1135       C  0.09171692  0.97160304  0.93552484    -0.09700
C1136       C  0.05872128  0.95225268  0.93982890    -0.10200
C1137       C  0.04048053  0.92179345  0.93120923    -0.03200
C1138       C  0.05478819  0.91108685  0.91837737    -0.18300
H1139       H  0.09088350  0.84277950  0.83441950     0.10800
H1140       H  0.06536451  0.86337043  0.85532278     0.10900
H1141       H  0.14877529  0.90312693  0.89169801     0.10500
H1142       H  0.17438449  0.88417661  0.87053193     0.11700
H1143       H  0.06262527  0.88520547  0.88602169     0.11700
H1144       H  0.13029936  0.93390394  0.90075921     0.13600
H1145       H  0.13147971  0.97637310  0.91958897     0.10200
H1146       H  0.10649782  0.99514857  0.94196489     0.12300
H1147       H  0.01503793  0.90622079  0.93429364     0.08900
H1148       H  0.03999720  0.88723643  0.91237757     0.11600
C1149       C  0.44115050  0.97304577  0.75469391    -0.03000
C1150       C  0.42320977  0.98796527  0.75143397    -0.05600
C1151       C  0.39362615  0.97676282  0.76039351    -0.20700
C1152       C  0.38113335  0.95009227  0.77254215     0.25100
C1153       C  0.39977410  0.93599757  0.77646367    -0.18200
C1154       C  0.42978302  0.94764517  0.76770438    -0.08200
C1155       C  0.34881217  0.93796897  0.78100025    -0.18500
C1156       C  0.32758046  0.90631405  0.78412685    -0.23300
C1157       C  0.29468884  0.89395764  0.79197264     0.27100
C1158       C  0.27015861  0.86187425  0.78822587    -0.20000
C1159       C  0.23957588  0.84882130  0.79642110    -0.09700
C1160       C  0.23318312  0.86749274  0.80874171    -0.10200
C1161       C  0.25722061  0.89989469  0.81196918    -0.03200
C1162       C  0.28773052  0.91296734  0.80380285    -0.18300
H1163       H  0.43169007  0.50747940  0.74138462     0.10800
H1164       H  0.37991522  0.98824642  0.75732192     0.10900
H1165       H  0.39110839  0.91594197  0.78618292     0.10500
H1166       H  0.44336488  0.93589479  0.77037037     0.11700
H1167       H  0.34144036  0.95549375  0.78325333     0.11700
H1168       H  0.33396231  0.88862434  0.78001037     0.13600
H1169       H  0.27485198  0.84670750  0.77917512     0.10200
H1170       H  0.22137532  0.82373628  0.79380274     0.12300
H1171       H  0.25264582  0.91487535  0.82123899     0.08900
H1172       H  0.30604614  0.93754336  0.80735819     0.11600
C1173       C  0.03120876  0.96345312  0.75317471    -0.03000
C1174       C  0.01574074  0.92969674  0.75153872    -0.05600
C1175       C  0.02868916  0.91288885  0.76014175    -0.20700
C1176       C  0.05762471  0.92950471  0.77031871     0.25100
C1177       C  0.07244117  0.96330854  0.77259880    -0.18200
C1178       C  0.05916113  0.98011010  0.76415077    -0.08200
C1179       C  0.07106100  0.91046661  0.77844707    -0.18500
C1180       C  0.10264169  0.92287375  0.78211872    -0.23300
C1181       C  0.11568099  0.90348139  0.79028387     0.27100
C1182       C  0.14410024  0.91947597  0.80097043    -0.20000
C1183       C  0.15612645  0.90201353  0.80985050    -0.09700
C1184       C  0.14033081  0.86827348  0.80789118    -0.10200
C1185       C  0.11300510  0.85229588  0.79638532    -0.03200
C1186       C  0.10062525  0.86971107  0.78769905    -0.18300
H1187       H  0.99405997  0.91647387  0.74314314     0.10800
H1188       H  0.01655475  0.88687756  0.75836598     0.10900
H1189       H  0.09418435  0.97683462  0.78085582     0.10500
H1190       H  0.07134014  0.00618586  0.76555167     0.11700
H1191       H  0.05414247  0.88494883  0.78101228     0.11700
H1192       H  0.11961839  0.94841253  0.77965048     0.13600
H1193       H  0.15644423  0.94545386  0.80296725     0.10200
H1194       H  0.17738653  0.91471361  0.81863141     0.12300
H1195       H  0.10061843  0.82625972  0.79470080     0.08900
H1196       H  0.07934284  0.85665190  0.77902085     0.11600
C1197       C  0.14140310  0.77004105  0.80818993    -0.03000
C1198       C  0.15771255  0.75311576  0.80960189    -0.05600
C1199       C  0.14595876  0.72355954  0.80036306    -0.20700
C1200       C  0.11727951  0.71003619  0.78992730     0.25100
C1201       C  0.10137474  0.72748734  0.78812088    -0.18200
C1202       C  0.11357246  0.75747404  0.79707982    -0.08200
C1203       C  0.10516246  0.67811329  0.78079072    -0.18500
C1204       C  0.07353777  0.65626326  0.77840831    -0.23300
C1205       C  0.06147306  0.62402047  0.76958885     0.27100
C1206       C  0.03043697  0.59828196  0.77413502    -0.20000
C1207       C  0.01780156  0.56807967  0.76541020    -0.09700
C1208       C  0.03578796  0.56329336  0.75173811    -0.10200
C1209       C  0.06703393  0.58873583  0.74743002    -0.03200
C1210       C  0.07971660  0.61885072  0.75616703    -0.18300
H1211       H  0.17932916  0.76264012  0.81808456     0.10800
H1212       H  0.15884561  0.71079599  0.80176549     0.10900
H1213       H  0.07969415  0.71810544  0.77973920     0.10500
H1214       H  0.10078669  0.77035856  0.79584968     0.11700
H1215       H  0.12290021  0.67164118  0.77711821     0.11700
H1216       H  0.05576905  0.66153682  0.78386733     0.13600
H1217       H  0.01583006  0.60165503  0.78434791     0.10200
H1218       H  0.49355104  0.54881567  0.76883432     0.12300
H1219       H  0.08136077  0.58548605  0.73696139     0.08900
H1220       H  0.10336533  0.63823352  0.75192091     0.11600
C1221       C  0.14087714  0.77254284  0.61128747    -0.03000
C1222       C  0.16301130  0.76699559  0.60195129    -0.05600
C1223       C  0.15240455  0.74268669  0.58845816    -0.20700
C1224       C  0.11946523  0.72337327  0.58424326     0.25100
C1225       C  0.09719391  0.72885523  0.59379968    -0.18200
C1226       C  0.10792596  0.75336688  0.60727243    -0.08200
C1227       C  0.10947888  0.69854306  0.56939421    -0.18500
C1228       C  0.08031688  0.67133855  0.56909622    -0.23300
C1229       C  0.07106184  0.64573947  0.55481619     0.27100
C1230       C  0.04857778  0.61372971  0.55977324    -0.20000
C1231       C  0.03901879  0.58882957  0.54677464    -0.09700
C1232       C  0.05136798  0.59545932  0.52837047    -0.10200
C1233       C  0.07365487  0.62761162  0.52328865    -0.03200
C1234       C  0.08350130  0.65257638  0.53641552    -0.18300
H1235       H  0.18853506  0.78163120  0.60506230     0.10800
H1236       H  0.16996678  0.73895218  0.58127685     0.10900
H1237       H  0.07171214  0.71500251  0.59052111     0.10500
H1238       H  0.09072668  0.75792725  0.61421181     0.11700
H1239       H  0.12752723  0.70183281  0.55912313     0.11700
H1240       H  0.06341652  0.66645342  0.58045274     0.13600
H1241       H  0.03852889  0.60792533  0.57381346     0.10200
H1242       H  0.02156415  0.56435502  0.55112560     0.12300
H1243       H  0.08339530  0.63346642  0.50919122     0.08900
H1244       H  0.10028199  0.67718221  0.53200948     0.11600
C1245       C  0.22954886  0.87133066  0.61070042    -0.03000
C1246       C  0.25503150  0.90269565  0.61498057    -0.05600
C1247       C  0.28195658  0.91836807  0.60319257    -0.20700
C1248       C  0.28350886  0.90336172  0.58667126     0.25100
C1249       C  0.25759015  0.87231362  0.58217717    -0.18200
C1250       C  0.23084295  0.85663552  0.59400290    -0.08200
C1251       C  0.31316839  0.91967293  0.57501651    -0.18500
C1252       C  0.31325831  0.91373030  0.55654614    -0.23300
C1253       C  0.34309904  0.92751268  0.54510111     0.27100
C1254       C  0.34092786  0.92976346  0.52556926    -0.20000
C1255       C  0.36829481  0.94117962  0.51422997    -0.09700
C1256       C  0.39836244  0.95029657  0.52221965    -0.10200
C1257       C  0.40045244  0.94778878  0.54178072    -0.03200
C1258       C  0.37314553  0.93644869  0.55309176    -0.18300
H1259       H  0.25427844  0.91490837  0.62755411     0.10800
H1260       H  0.30164493  0.94223811  0.60699344     0.10900
H1261       H  0.25825275  0.85953902  0.56986457     0.10500
H1262       H  0.21153894  0.83262067  0.59026836     0.11700
H1263       H  0.33542074  0.93741372  0.58187251     0.11700
H1264       H  0.29052114  0.89854507  0.54933675     0.13600
H1265       H  0.31796807  0.92267524  0.51906761     0.10200
H1266       H  0.36587985  0.94284382  0.49922147     0.12300
H1267       H  0.42319273  0.95436599  0.54839427     0.08900
H1268       H  0.37559169  0.93398987  0.56799916     0.11600
C1269       C  0.04693124  0.93999588  0.52491337    -0.03000
C1270       C  0.06168304  0.92372057  0.51761628    -0.05600
C1271       C  0.07351781  0.90933577  0.52969843    -0.20700
C1272       C  0.07108797  0.91116875  0.54926225     0.25100
C1273       C  0.05573080  0.92688661  0.55652076    -0.18200
C1274       C  0.04395119  0.94121868  0.54449629    -0.08200
C1275       C  0.08395924  0.89568426  0.56165125    -0.18500
C1276       C  0.09262627  0.90454833  0.57965723    -0.23300
C1277       C  0.10589080  0.88931374  0.59191576     0.27100
C1278       C  0.12594459  0.90714427  0.60699752    -0.20000
C1279       C  0.13965549  0.89388287  0.61847215    -0.09700
C1280       C  0.13299752  0.86231391  0.61523418    -0.10200
C1281       C  0.11228957  0.84415824  0.60051372    -0.03200
C1282       C  0.09866907  0.85739104  0.58902089    -0.18300
H1283       H  0.06416267  0.92216721  0.50260459     0.10800
H1284       H  0.08489133  0.89700322  0.52375180     0.10900
H1285       H  0.05223091  0.92779158  0.57145050     0.10500
H1286       H  0.03237309  0.95321454  0.55061880     0.11700
H1287       H  0.08787354  0.87748369  0.55536661     0.11700
H1288       H  0.09182234  0.92495335  0.58541498     0.13600
H1289       H  0.13163871  0.93167779  0.60961752     0.10200
H1290       H  0.15598699  0.90848802  0.62958663     0.12300
H1291       H  0.10670137  0.81965574  0.59789005     0.08900
H1292       H  0.08238681  0.84245741  0.57800087     0.11600
C1293       C  0.02997435  0.56006667  0.70976668    -0.03000
C1294       C  0.01622514  0.57924947  0.71235524    -0.05600
C1295       C  0.02934014  0.60929199  0.70347872    -0.20700
C1296       C  0.05664148  0.62100436  0.69190600     0.25100
C1297       C  0.06947115  0.60096043  0.68858999    -0.18200
C1298       C  0.05612154  0.57067109  0.69743455    -0.08200
C1299       C  0.07053813  0.65405929  0.68364723    -0.18500
C1300       C  0.10121726  0.67238493  0.67748049    -0.23300
C1301       C  0.11506559  0.70574235  0.66965540     0.27100
C1302       C  0.14210387  0.71794980  0.65782037    -0.20000
C1303       C  0.15546795  0.74869595  0.64975074    -0.09700
C1304       C  0.14225718  0.76808938  0.65344297    -0.10200
C1305       C  0.11617304  0.75673032  0.66588815    -0.03200
C1306       C  0.10261510  0.72581396  0.67392721    -0.18300
H1307       H  0.99594746  0.57139071  0.72179431     0.10800
H1308       H  0.01866893  0.62390004  0.70613063     0.10900
H1309       H  0.08980259  0.60850998  0.67929602     0.10500
H1310       H  0.06699514  0.55612402  0.69526579     0.11700
H1311       H  0.05481599  0.66388993  0.68318014     0.11700
H1312       H  0.11697869  0.66259582  0.67782948     0.13600
H1313       H  0.15255459  0.70336155  0.65449306     0.10200
H1314       H  0.17591375  0.75721149  0.64038703     0.12300
H1315       H  0.10574696  0.77142802  0.66896580     0.08900
H1316       H  0.08257229  0.71792208  0.68349720     0.11600
C1317       C  0.43674630  0.96187319  0.71320602    -0.03000
C1318       C  0.41207217  0.93166808  0.71987510    -0.05600
C1319       C  0.38085418  0.91752158  0.71274993    -0.20700
C1320       C  0.37401680  0.93232181  0.69808555     0.25100
C1321       C  0.39911490  0.96130708  0.69032760    -0.18200
C1322       C  0.43032466  0.97614958  0.69796266    -0.08200
C1323       C  0.34020733  0.91765799  0.69177442    -0.18500
C1324       C  0.33193740  0.91164315  0.67362546    -0.23300
C1325       C  0.29780889  0.89401346  0.66741746     0.27100
C1326       C  0.28864435  0.87186008  0.65261988    -0.20000
C1327       C  0.25718625  0.85632775  0.64565806    -0.09700
C1328       C  0.23465689  0.86377462  0.65278384    -0.10200
C1329       C  0.24326520  0.88471890  0.66819792    -0.03200
C1330       C  0.27464714  0.89973658  0.67551069    -0.18300
H1331       H  0.41668433  0.91958030  0.73117326     0.10800
H1332       H  0.36192926  0.89499430  0.71874916     0.10900
H1333       H  0.39423163  0.97312469  0.67898319     0.10500
H1334       H  0.44897592  0.99937247  0.69256022     0.11700
H1335       H  0.32145594  0.90864971  0.70243377     0.11700
H1336       H  0.35057942  0.91748306  0.66319613     0.13600
H1337       H  0.30595813  0.86678111  0.64633290     0.10200
H1338       H  0.25082270  0.83954560  0.63407182     0.12300
H1339       H  0.22630742  0.89066399  0.67398872     0.08900
H1340       H  0.28117881  0.91686446  0.68691312     0.11600
C1341       C  0.03315888  0.96488923  0.71104714    -0.03000
C1342       C  0.01512103  0.94225492  0.69703764    -0.05600
C1343       C  0.02778919  0.92572392  0.68758934    -0.20700
C1344       C  0.05865469  0.93140901  0.69200116     0.25100
C1345       C  0.07727243  0.95535611  0.70540351    -0.18200
C1346       C  0.06466681  0.97191833  0.71474000    -0.08200
C1347       C  0.07077701  0.91248671  0.68205217    -0.18500
C1348       C  0.09470842  0.90849850  0.68864706    -0.23300
C1349       C  0.10749605  0.89048759  0.67840673     0.27100
C1350       C  0.13936314  0.89838340  0.68187786    -0.20000
C1351       C  0.15298093  0.88342264  0.67178515    -0.09700
C1352       C  0.13493685  0.86014112  0.65809130    -0.10200
C1353       C  0.10244261  0.85069211  0.65542700    -0.03200
C1354       C  0.08883975  0.86573910  0.66542657    -0.18300
H1355       H  0.49086742  0.93661297  0.69383751     0.10800
H1356       H  0.01311529  0.90786677  0.67709338     0.10900
H1357       H  0.10167983  0.96171694  0.70865653     0.10500
H1358       H  0.07949795  0.99012264  0.72502725     0.11700
H1359       H  0.05921226  0.90127806  0.66885288     0.11700
H1360       H  0.10636910  0.91967451  0.70182041     0.13600
H1361       H  0.15414336  0.91700257  0.69199119     0.10200
H1362       H  0.17801361  0.89108954  0.67409534     0.12300
H1363       H  0.08782195  0.83221265  0.64521055     0.08900
H1364       H  0.06381540  0.85794504  0.66290348     0.11600
C1365       C  0.66716678  0.33451214  0.61618663     0.45700
H1366       H  0.66566874  0.33518247  0.60064067    -0.03400
C1367       C  0.67041144  0.33266237  0.65264956     0.45700
H1368       H  0.67179241  0.33166098  0.66817953    -0.03400
C1369       C  0.70167626  0.35352710  0.62367187    -0.17100
C1370       C  0.64938101  0.34866766  0.62628017    -0.16800
C1371       C  0.65297690  0.30041525  0.62406806    -0.17200
C1372       C  0.70372383  0.35196997  0.64289478    -0.17200
C1373       C  0.65097195  0.34794271  0.64554315    -0.16700
C1374       C  0.65427662  0.29900376  0.64322732    -0.17000
C1375       C  0.66906023  0.33381131  0.81057118     0.45700
H1376       H  0.66966807  0.33391786  0.79497752    -0.03400
C1377       C  0.66800725  0.33376994  0.84714686     0.45700
H1378       H  0.66766481  0.33361251  0.86273728    -0.03400
C1379       C  0.65258967  0.29971469  0.81934451    -0.17100
C1380       C  0.70286115  0.35217339  0.81965111    -0.16800
C1381       C  0.65129227  0.34984579  0.81900959    -0.17200
C1382       C  0.65216090  0.29982003  0.83862613    -0.17200
C1383       C  0.70195791  0.35217539  0.83888959    -0.16700
C1384       C  0.65050818  0.34941454  0.83831421    -0.17000
C1385       C  0.50417109  0.99912531  0.75050453     0.45700
H1386       H  0.50528829  0.00027351  0.76608622    -0.03400
C1387       C  0.50127440  0.99619963  0.71382628     0.45700
H1388       H  0.50020050  0.49497842  0.69832967    -0.03400
C1389       C  0.96986790  0.48188816  0.74282793    -0.17100
C1390       C  0.52086230  0.03244768  0.74094306    -0.16800
C1391       C  0.51992695  0.48133718  0.74189833    -0.17200
C1392       C  0.96817363  0.47940690  0.72356352    -0.17200
C1393       C  0.51905341  0.03097787  0.72165538    -0.16700
C1394       C  0.51898265  0.48021487  0.72259517    -0.17000
C1395       C  0.83831302  0.16211287  0.31080508     0.45700
H1396       H  0.83734918  0.16107748  0.29522161    -0.03400
C1397       C  0.84141070  0.16511184  0.34729664     0.45700
H1398       H  0.84259722  0.16647931  0.36287113    -0.03400
C1399       C  0.85787246  0.19690246  0.31857380    -0.17100
C1400       C  0.80500616  0.14709746  0.32039191    -0.16800
C1401       C  0.85445189  0.14478199  0.31954203    -0.17200
C1402       C  0.85951459  0.19816947  0.33779079    -0.17200
C1403       C  0.80690931  0.14897324  0.33967401    -0.16700
C1404       C  0.85571835  0.14607018  0.33881373    -0.17000
C1405       C  0.83834156  0.16186846  0.15315745     0.45700
H1406       H  0.83801897  0.16129141  0.16875097    -0.03400
C1407       C  0.83921668  0.16365575  0.11659418     0.45700
H1408       H  0.83938739  0.16439568  0.10099537    -0.03400
C1409       C  0.80463922  0.14689697  0.14421018    -0.17100
C1410       C  0.85740507  0.19642558  0.14497541    -0.16800
C1411       C  0.85361278  0.14382697  0.14405584    -0.17200
C1412       C  0.80528287  0.14797416  0.12495704    -0.17200
C1413       C  0.85770807  0.19707136  0.12571110    -0.16700
C1414       C  0.85355485  0.14449541  0.12475814    -0.17000
C1415       C  0.50531042  0.49812411  0.21381122     0.45700
H1416       H  0.50614843  0.49773157  0.19822778    -0.03400
C1417       C  0.50333489  0.49877017  0.25043958     0.45700
H1418       H  0.50250118  0.49899010  0.26602607    -0.03400
C1419       C  0.98842587  0.46430067  0.22272915    -0.17100
C1420       C  0.53868204  0.01640205  0.22303918    -0.16800
C1421       C  0.98731707  0.01430163  0.22157657    -0.17200
C1422       C  0.98714122  0.46460728  0.24197966    -0.17200
C1423       C  0.53764385  0.01652980  0.24234207    -0.16700
C1424       C  0.98648288  0.01483904  0.24088430    -0.17000
O1425       O  0.51312032  0.05898706  0.95641472    -0.78300
C1426       C  0.93198796  0.45921750  0.94944491     0.82800
O1427       O  0.97362306  0.01713313  0.01864943    -0.79400
O1428       O  0.96402821  0.41835552  0.99424595    -0.80900
O1429       O  0.55974651  0.49301372  0.95887050    -0.80700
O1430       O  0.56026053  0.06176897  0.95982103    -0.79300
Zn1431     Zn  0.98098280  0.01951974  0.97161879     1.55700
O1432       O  0.51338791  0.44581858  0.95656258    -0.80700
Cd1433     Cd  0.54896703  0.02139784  0.97559125     1.59700
Cd1434     Cd  0.49820140  0.99579750  0.00967937     1.59600
O1435       O  0.57815831  0.03550945  0.99935939    -0.80700
O1436       O  0.50202649  0.99752711  0.98200138    -1.91200
Cd1437     Cd  0.98132895  0.45197497  0.97254969     1.59900
O1438       O  0.54233714  0.01827674  0.02260198    -0.80700
O1439       O  0.94302022  0.44190316  0.95541512    -0.79300
C1440       C  0.96074199  0.03091972  0.01026086     0.83200
C1441       C  0.54334664  0.07273412  0.95309344     0.82900
O1442       O  0.94443875  0.48878707  0.95433207    -0.78300
C1443       C  0.54313426  0.46425788  0.95247296     0.83700
O1444       O  0.96184403  0.03385835  0.99241102    -0.78400
C1445       C  0.57135832  0.03221781  0.01682927     0.83800
C1446       C  0.96272420  0.42167657  0.01192582     0.84100
O1447       O  0.97404764  0.44938515  0.01943157    -0.80800
O1448       O  0.99271067  0.43608936  0.45604691    -0.78300
C1449       C  0.57901740  0.03159393  0.45267080     0.82800
O1450       O  0.52183743  0.47033210  0.52003576    -0.79400
O1451       O  0.54607618  0.07473520  0.49729185    -0.81900
O1452       O  0.95653680  0.01149009  0.45485703    -0.80700
O1453       O  0.94825500  0.43892808  0.45472086    -0.79300
Zn1454     Zn  0.52388108  0.47285785  0.47286077     1.55700
O1455       O  0.00506214  0.05640400  0.45649053    -0.80700
Cd1456     Cd  0.95966356  0.47824492  0.47151573     1.59700
Cd1457     Cd  0.50132084  0.49479191  0.50927750     1.59600
O1458       O  0.92542869  0.46367409  0.49271946    -0.80700
O1459       O  0.50440439  0.49723513  0.48156654    -1.91200
Cd1460     Cd  0.53126016  0.04402217  0.47400623     1.59900
O1461       O  0.95458985  0.47252500  0.51857033    -0.80700
O1462       O  0.57061079  0.05120824  0.45848423    -0.79300
C1463       C  0.53466413  0.45576245  0.51249115     0.83200
C1464       C  0.96421807  0.42573170  0.44994300     0.82900
O1465       O  0.56341895  0.00174118  0.45724198    -0.78300
C1466       C  0.97619148  0.04083742  0.45028643     0.83700
O1467       O  0.53695639  0.45461308  0.49468490    -0.78400
C1468       C  0.92762663  0.46267274  0.51051694     0.83800
C1469       C  0.54023489  0.06870464  0.51477904     0.84100
O1470       O  0.52400729  0.03988928  0.52097661    -0.80800
C1471       C  0.59748199  0.04423228  0.03097137    -0.03000
C1472       C  0.58977554  0.03844862  0.05017032    -0.05600
C1473       C  0.61404417  0.04870333  0.06363887    -0.20700
C1474       C  0.64657547  0.06535305  0.05831312     0.25100
C1475       C  0.65444049  0.07106869  0.03910520    -0.18200
C1476       C  0.63009347  0.06063618  0.02557334    -0.08200
C1477       C  0.67146815  0.07570627  0.07317014    -0.18500
C1478       C  0.70142720  0.10156041  0.07131099    -0.23300
C1479       C  0.72634489  0.11307983  0.08625218     0.27100
C1480       C  0.75244644  0.14506188  0.08526545    -0.20000
C1481       C  0.77742492  0.15662827  0.09833906    -0.09700
C1482       C  0.77679662  0.13643808  0.11268271    -0.10200
C1483       C  0.75058764  0.10458069  0.11397454    -0.03200
C1484       C  0.72555896  0.09288500  0.10082253    -0.18300
H1485       H  0.56483545  0.52583689  0.05477249     0.10800
H1486       H  0.60736750  0.04381113  0.07831469     0.10900
H1487       H  0.67926212  0.08298534  0.03443593     0.10500
H1488       H  0.63680357  0.06518159  0.01089730     0.11700
H1489       H  0.66403036  0.06285488  0.08644053     0.11700
H1490       H  0.70764331  0.11605682  0.05862434     0.13600
H1491       H  0.75371824  0.16107355  0.07418715     0.10200
H1492       H  0.79755405  0.18127534  0.09709107     0.12300
H1493       H  0.75014192  0.08840053  0.12467322     0.08900
H1494       H  0.70640611  0.06780883  0.10177717     0.11600
C1495       C  0.86999261  0.22662565  0.11426659    -0.03000
C1496       C  0.85683558  0.24644548  0.11623661    -0.05600
C1497       C  0.86721724  0.27337005  0.10460923    -0.20700
C1498       C  0.89044448  0.28045975  0.09066719     0.25100
C1499       C  0.90404954  0.26088567  0.08903374    -0.18200
C1500       C  0.89375064  0.23410310  0.10070742    -0.08200
C1501       C  0.90071708  0.30886925  0.07837225    -0.18500
C1502       C  0.91108216  0.31012841  0.06068374    -0.23300
C1503       C  0.92278215  0.33883546  0.04840972     0.27100
C1504       C  0.92237734  0.33482135  0.02887593    -0.20000
C1505       C  0.93483216  0.36159678  0.01690406    -0.09700
C1506       C  0.94819135  0.39294824  0.02430439    -0.10200
C1507       C  0.94842806  0.39689097  0.04387951    -0.03200
C1508       C  0.93600533  0.37019112  0.05580668    -0.18300
H1509       H  0.83821448  0.24076120  0.12657441     0.10800
H1510       H  0.85666350  0.28831564  0.10624561     0.10900
H1511       H  0.92293024  0.26641795  0.07893462     0.10500
H1512       H  0.90461621  0.21948676  0.09930217     0.11700
H1513       H  0.89828899  0.32853488  0.08381386     0.11700
H1514       H  0.91020970  0.28896887  0.05470386     0.13600
H1515       H  0.91254247  0.31089567  0.02287034     0.10200
H1516       H  0.43432987  0.35776991  0.00189807     0.12300
H1517       H  0.95877834  0.42073596  0.05007334     0.08900
H1518       H  0.93773781  0.37440693  0.07078890     0.11600
C1519       C  0.94429315  0.04359289  0.02187672    -0.03000
C1520       C  0.93169161  0.06144184  0.01396450    -0.05600
C1521       C  0.91718466  0.07400507  0.02540594    -0.20700
C1522       C  0.91472367  0.06871561  0.04490246     0.25100
C1523       C  0.92719770  0.05068233  0.05275034    -0.18200
C1524       C  0.94163903  0.03820379  0.04137669    -0.08200
C1525       C  0.90136464  0.08437664  0.05677700    -0.18500
C1526       C  0.89063880  0.07494337  0.07446851    -0.23300
C1527       C  0.88097213  0.09303001  0.08706605     0.27100
C1528       C  0.86112930  0.07711254  0.10260234    -0.20000
C1529       C  0.85244747  0.09379067  0.11505327    -0.09700
C1530       C  0.86384376  0.12680987  0.11229691    -0.10200
C1531       C  0.88380363  0.14272841  0.09688953    -0.03200
C1532       C  0.89256147  0.12618678  0.08449440    -0.18300
H1533       H  0.93343398  0.06608083  0.99900817     0.10800
H1534       H  0.90810818  0.08814915  0.01903419     0.10900
H1535       H  0.92689835  0.04693098  0.06772714     0.10500
H1536       H  0.95118243  0.02466337  0.04799224     0.11700
H1537       H  0.90041397  0.10442954  0.05059608     0.11700
H1538       H  0.88847832  0.05296559  0.08002747     0.13600
H1539       H  0.85212489  0.05166333  0.10501917     0.10200
H1540       H  0.83649733  0.08082797  0.12667043     0.12300
H1541       H  0.89294090  0.16811123  0.09451059     0.08900
H1542       H  0.90889954  0.13972529  0.07316909     0.11600
C1543       C  0.87205594  0.22621583  0.15662340    -0.03000
C1544       C  0.85336289  0.23090263  0.16983789    -0.05600
C1545       C  0.86579473  0.26088906  0.17883009    -0.20700
C1546       C  0.89729775  0.28647692  0.17500987     0.25100
C1547       C  0.91626281  0.28128088  0.16213843    -0.18200
C1548       C  0.90379522  0.25142392  0.15313837    -0.08200
C1549       C  0.90904807  0.31872913  0.18378595    -0.18500
C1550       C  0.94060494  0.34060442  0.18647273    -0.23300
C1551       C  0.95274293  0.37302898  0.19498306     0.27100
C1552       C  0.98203523  0.38755926  0.20486987    -0.20000
C1553       C  0.99413668  0.41779489  0.21333746    -0.09700
C1554       C  0.97751323  0.43437662  0.21172721    -0.10200
C1555       C  0.94899528  0.42074509  0.20117235    -0.03200
C1556       C  0.93650333  0.39012566  0.19295633    -0.18300
H1557       H  0.82869472  0.21187089  0.17256812     0.10800
H1558       H  0.85060768  0.26428345  0.18858433     0.10900
H1559       H  0.94028666  0.30052765  0.15839351     0.10500
H1560       H  0.91860703  0.24830628  0.14295337     0.11700
H1561       H  0.89108283  0.32412166  0.18872022     0.11700
H1562       H  0.95839742  0.33397790  0.18329362     0.13600
H1563       H  0.49519378  0.37509817  0.20643880     0.10200
H1564       H  0.51616976  0.42803521  0.22148939     0.12300
H1565       H  0.93586815  0.43328092  0.19987951     0.08900
H1566       H  0.91433982  0.38001415  0.18497658     0.11600
C1567       C  0.97201224  0.02739364  0.20927133    -0.03000
C1568       C  0.99017963  0.05024640  0.19540058    -0.05600
C1569       C  0.97671337  0.06515034  0.18513099    -0.20700
C1570       C  0.94492183  0.05749963  0.18859756     0.25100
C1571       C  0.92624276  0.03325071  0.20183028    -0.18200
C1572       C  0.93968435  0.01833312  0.21202357    -0.08200
C1573       C  0.93201928  0.07499997  0.17802917    -0.18500
C1574       C  0.90802947  0.07892467  0.18452462    -0.23300
C1575       C  0.89516086  0.09677129  0.17425573     0.27100
C1576       C  0.86446737  0.09109524  0.17908796    -0.20000
C1577       C  0.85121628  0.10698775  0.16962684    -0.09700
C1578       C  0.86841401  0.12876460  0.15511736    -0.10200
C1579       C  0.89959097  0.13549662  0.15075678    -0.03200
C1580       C  0.91287819  0.11971557  0.16020125    -0.18300
H1581       H  0.01510838  0.05738130  0.19299460     0.10800
H1582       H  0.99145287  0.08335893  0.17481001     0.10900
H1583       H  0.90124265  0.02557194  0.20433024     0.10500
H1584       H  0.92500287  0.00007178  0.22233019     0.11700
H1585       H  0.94340854  0.08556870  0.16469865     0.11700
H1586       H  0.89692478  0.06844328  0.19793909     0.13600
H1587       H  0.85046879  0.07390002  0.19002665     0.10200
H1588       H  0.82723155  0.10163313  0.17329202     0.12300
H1589       H  0.91363334  0.15292662  0.13992763     0.08900
H1590       H  0.93709908  0.12594609  0.15653836     0.11600
C1591       C  0.77511941  0.13649131  0.15535084    -0.03000
C1592       C  0.76022660  0.15486969  0.15495482    -0.05600
C1593       C  0.73114964  0.14418585  0.16445921    -0.20700
C1594       C  0.71613900  0.11461619  0.17417846     0.25100
C1595       C  0.73173876  0.09674475  0.17504004    -0.18200
C1596       C  0.76111124  0.10772794  0.16573928    -0.08200
C1597       C  0.68440399  0.10326662  0.18331324    -0.18500
C1598       C  0.66186417  0.07163329  0.18524705    -0.23300
C1599       C  0.62953306  0.05925633  0.19393049     0.27100
C1600       C  0.60534094  0.02683867  0.19071404    -0.20000
C1601       C  0.57527991  0.01336472  0.19953637    -0.09700
C1602       C  0.56900839  0.03192143  0.21198877    -0.10200
C1603       C  0.59266190  0.06457948  0.21485786    -0.03200
C1604       C  0.62270410  0.07815451  0.20597770    -0.18300
H1605       H  0.77098594  0.17731473  0.14709545     0.10800
H1606       H  0.71989558  0.15861171  0.16379736     0.10900
H1607       H  0.72138299  0.07437807  0.18291320     0.10500
H1608       H  0.77245024  0.09338417  0.16622522     0.11700
H1609       H  0.67884623  0.12156161  0.18730454     0.11700
H1610       H  0.66679045  0.05371449  0.17956738     0.13600
H1611       H  0.60990878  0.01169219  0.18156477     0.10200
H1612       H  0.55777829  0.48793479  0.19759816     0.12300
H1613       H  0.58816165  0.07929925  0.22441011     0.08900
H1614       H  0.64070302  0.10299749  0.20916808     0.11600
C1615       C  0.60687460  0.04350398  0.43973897    -0.03000
C1616       C  0.61802719  0.02308548  0.43398222    -0.05600
C1617       C  0.64293700  0.03371554  0.42082780    -0.20700
C1618       C  0.65730245  0.06494753  0.41313441     0.25100
C1619       C  0.64606023  0.08536238  0.41888223    -0.18200
C1620       C  0.62132467  0.07481479  0.43211802    -0.08200
C1621       C  0.68293884  0.07474690  0.39868601    -0.18500
C1622       C  0.70359968  0.10575349  0.39375994    -0.23300
C1623       C  0.72928433  0.11577444  0.37938397     0.27100
C1624       C  0.75542494  0.14779773  0.37975950    -0.20000
C1625       C  0.78029345  0.15846468  0.36665798    -0.09700
C1626       C  0.77932861  0.13746078  0.35273051    -0.10200
C1627       C  0.75304628  0.10555399  0.35203710    -0.03200
C1628       C  0.72808225  0.09478709  0.36519483    -0.18300
H1629       H  0.60727614  0.99872685  0.43947972     0.10800
H1630       H  0.65089016  0.01737738  0.41656280     0.10900
H1631       H  0.65550261  0.10917794  0.41290789     0.10500
H1632       H  0.61296686  0.09097490  0.43601532     0.11700
H1633       H  0.68548045  0.05565554  0.39244426     0.11700
H1634       H  0.70299041  0.12507138  0.40116366     0.13600
H1635       H  0.75681649  0.16455424  0.39038439     0.10200
H1636       H  0.80036663  0.18321667  0.36738678     0.12300
H1637       H  0.75202504  0.08892953  0.34144768     0.08900
H1638       H  0.70790535  0.07022554  0.36405016     0.11600
C1639       C  0.87629388  0.22809657  0.34895763    -0.03000
C1640       C  0.90623552  0.23752838  0.35706612    -0.05600
C1641       C  0.92139717  0.26475744  0.36863752    -0.20700
C1642       C  0.90651499  0.28253933  0.37256869     0.25100
C1643       C  0.87677725  0.27343688  0.36396491    -0.18200
C1644       C  0.86178568  0.24633032  0.35223532    -0.08200
C1645       C  0.92280687  0.31040184  0.38562456    -0.18500
C1646       C  0.90656346  0.32010564  0.39647875    -0.23300
C1647       C  0.92219081  0.34707737  0.41023822     0.27100
C1648       C  0.90465858  0.36097074  0.41673063    -0.20000
C1649       C  0.91814846  0.38627008  0.42973529    -0.09700
C1650       C  0.94949632  0.39812993  0.43667418    -0.10200
C1651       C  0.96689258  0.38387935  0.43043725    -0.03200
C1652       C  0.95339630  0.35856750  0.41741798    -0.18300
H1653       H  0.91789639  0.22387592  0.35436171     0.10800
H1654       H  0.94447046  0.27153911  0.37487733     0.10900
H1655       H  0.86513796  0.28722630  0.36614898     0.10500
H1656       H  0.83868872  0.23927841  0.34593100     0.11700
H1657       H  0.94882665  0.32222947  0.38671979     0.11700
H1658       H  0.88047637  0.30778385  0.39533520     0.13600
H1659       H  0.88048161  0.35239908  0.41158962     0.10200
H1660       H  0.90403250  0.39663924  0.43426466     0.12300
H1661       H  0.49102511  0.39231582  0.43558769     0.08900
H1662       H  0.96741392  0.34791994  0.41333796     0.11600
C1663       C  0.96507013  0.05701958  0.43727847    -0.03000
C1664       C  0.98646905  0.08851738  0.43067790    -0.05600
C1665       C  0.97579851  0.10343519  0.41822345    -0.20700
C1666       C  0.94368947  0.08710466  0.41198112     0.25100
C1667       C  0.92216991  0.05576248  0.41877233    -0.18200
C1668       C  0.93279639  0.04086587  0.43120551    -0.08200
C1669       C  0.93307994  0.10383075  0.39898867    -0.18500
C1670       C  0.90816650  0.08780168  0.38704104    -0.23300
C1671       C  0.89638747  0.10398678  0.37442787     0.27100
C1672       C  0.87740519  0.08683263  0.35888679    -0.20000
C1673       C  0.86443974  0.10051333  0.34719324    -0.09700
C1674       C  0.87039059  0.13177329  0.35074364    -0.10200
C1675       C  0.88911730  0.14883012  0.36637730    -0.03200
C1676       C  0.90197296  0.13513826  0.37812874    -0.18300
H1677       H  0.01148054  0.10162835  0.43508530     0.10800
H1678       H  0.99273994  0.12772141  0.41332885     0.10900
H1679       H  0.89696015  0.04284640  0.41482363     0.10500
H1680       H  0.91559498  0.01670320  0.43614718     0.11700
H1681       H  0.94712283  0.13009156  0.39882171     0.11700
H1682       H  0.89631944  0.06164425  0.38598826     0.13600
H1683       H  0.87226242  0.06258287  0.35590723     0.10200
H1684       H  0.84907761  0.08628458  0.33567591     0.12300
H1685       H  0.89367653  0.17272582  0.36965587     0.08900
H1686       H  0.91545842  0.14874254  0.39032175     0.11600
C1687       C  0.87266339  0.22605714  0.30647067    -0.03000
C1688       C  0.85381438  0.23023188  0.29315168    -0.05600
C1689       C  0.86663610  0.25929714  0.28317429    -0.20700
C1690       C  0.89840160  0.28469218  0.28646153     0.25100
C1691       C  0.91780745  0.27972843  0.29907528    -0.18200
C1692       C  0.90505288  0.25058722  0.30890388    -0.08200
C1693       C  0.91058990  0.31575843  0.27631187    -0.18500
C1694       C  0.93336776  0.34459668  0.28338393    -0.23300
C1695       C  0.94567625  0.37583603  0.27332757     0.27100
C1696       C  0.97635512  0.40209835  0.27798197    -0.20000
C1697       C  0.98948077  0.43138600  0.26818954    -0.09700
C1698       C  0.97205849  0.43488471  0.25363070    -0.10200
C1699       C  0.94066674  0.40939190  0.24969197    -0.03200
C1700       C  0.92757174  0.38012125  0.25939863    -0.18300
H1701       H  0.82884027  0.21147168  0.29097045     0.10800
H1702       H  0.85140026  0.26234415  0.27328243     0.10900
H1703       H  0.94283698  0.29816227  0.30131615     0.10500
H1704       H  0.92041269  0.24732437  0.31855985     0.11700
H1705       H  0.89967487  0.31461726  0.26282010     0.11700
H1706       H  0.94406091  0.34548024  0.29693226     0.13600
H1707       H  0.49057090  0.39964189  0.28887407     0.10200
H1708       H  0.51364398  0.45091141  0.27154137     0.12300
H1709       H  0.92636072  0.41205844  0.23896075     0.08900
H1710       H  0.90326726  0.36113339  0.25598154     0.11600
C1711       C  0.97129719  0.02963563  0.25181816    -0.03000
C1712       C  0.94752161  0.01123912  0.26518395    -0.05600
C1713       C  0.93078447  0.02401867  0.27414920    -0.20700
C1714       C  0.93792358  0.05558376  0.27014101     0.25100
C1715       C  0.96254035  0.07431723  0.25712300    -0.18200
C1716       C  0.97918456  0.06149659  0.24816349    -0.08200
C1717       C  0.91811932  0.06748472  0.27898974    -0.18500
C1718       C  0.92849389  0.09911910  0.28121690    -0.23300
C1719       C  0.90866798  0.11081911  0.29015911     0.27100
C1720       C  0.92438114  0.14026763  0.29996120    -0.20000
C1721       C  0.90659319  0.15162315  0.30907288    -0.09700
C1722       C  0.87279849  0.13403635  0.30822690    -0.10200
C1723       C  0.85693422  0.10540304  0.29772141    -0.03200
C1724       C  0.87472994  0.09369440  0.28882981    -0.18300
H1725       H  0.94142962  0.48660061  0.26839434     0.10800
H1726       H  0.91190537  0.00906175  0.28406879     0.10900
H1727       H  0.96831186  0.09842958  0.25328943     0.10500
H1728       H  0.49766275  0.07614941  0.23797072     0.11700
H1729       H  0.89463211  0.04947320  0.28448678     0.11700
H1730       H  0.95312074  0.11721056  0.27749200     0.13600
H1731       H  0.95046657  0.15408885  0.30098293     0.10200
H1732       H  0.91913684  0.17388217  0.31709473     0.12300
H1733       H  0.83083680  0.09160918  0.29695755     0.08900
H1734       H  0.86194075  0.07139585  0.28090219     0.11600
C1735       C  0.56670988  0.03090915  0.25450396    -0.03000
C1736       C  0.57136665  0.05357641  0.26835565    -0.05600
C1737       C  0.60018945  0.06927257  0.27863608    -0.20700
C1738       C  0.62481206  0.06258637  0.27522138     0.25100
C1739       C  0.61917169  0.03843528  0.26204290    -0.18200
C1740       C  0.59041447  0.02278634  0.25182877    -0.08200
C1741       C  0.65572508  0.08078451  0.28582687    -0.18500
C1742       C  0.68390193  0.08485018  0.27948796    -0.23300
C1743       C  0.71499507  0.10222599  0.28995672     0.27100
C1744       C  0.73938899  0.09582566  0.28527414    -0.20000
C1745       C  0.76875685  0.11088281  0.29494788    -0.09700
C1746       C  0.77442046  0.13274330  0.30950903    -0.10200
C1747       C  0.75070643  0.14038551  0.31366705    -0.03200
C1748       C  0.72121751  0.12519921  0.30406591    -0.18300
H1749       H  0.55316845  0.05988415  0.27077515     0.10800
H1750       H  0.60360532  0.08728534  0.28895140     0.10900
H1751       H  0.63671040  0.03131051  0.25961418     0.10500
H1752       H  0.58680567  0.00455066  0.24162769     0.11700
H1753       H  0.65506844  0.09145096  0.29909747     0.11700
H1754       H  0.68439810  0.07441767  0.26609317     0.13600
H1755       H  0.73547952  0.07861188  0.27429953     0.10200
H1756       H  0.78676562  0.10483055  0.29134949     0.12300
H1757       H  0.75496347  0.15807837  0.32439044     0.08900
H1758       H  0.70368480  0.13187536  0.30761324     0.11600
C1759       C  0.55935528  0.10176483  0.94081404    -0.03000
C1760       C  0.59247712  0.11659637  0.93676303    -0.05600
C1761       C  0.60747847  0.14297784  0.92452877    -0.20700
C1762       C  0.58980910  0.15512288  0.91590776     0.25100
C1763       C  0.55681878  0.14088871  0.92032753    -0.18200
C1764       C  0.54176553  0.11442755  0.93259239    -0.08200
C1765       C  0.60693199  0.18297414  0.90276038    -0.18500
C1766       C  0.59189639  0.19041717  0.88950895    -0.23300
C1767       C  0.60886452  0.21798817  0.87613233     0.27100
C1768       C  0.59204352  0.21868683  0.86022913    -0.20000
C1769       C  0.60633838  0.24470952  0.84768393    -0.09700
C1770       C  0.63785202  0.27061792  0.85077104    -0.10200
C1771       C  0.65483381  0.26999722  0.86656793    -0.03200
C1772       C  0.64055061  0.24404900  0.87916014    -0.18300
H1773       H  0.60685604  0.10762336  0.94289457     0.10800
H1774       H  0.63296668  0.15366277  0.92157885     0.10900
H1775       H  0.54253752  0.15019635  0.91454481     0.10500
H1776       H  0.51629916  0.10378975  0.93554786     0.11700
H1777       H  0.63306195  0.19663438  0.90351171     0.11700
H1778       H  0.56599046  0.17497779  0.88779501     0.13600
H1779       H  0.56751889  0.19920548  0.85763227     0.10200
H1780       H  0.59235805  0.24506951  0.83593150     0.12300
H1781       H  0.67909273  0.28989857  0.86931955     0.08900
H1782       H  0.65420369  0.24516080  0.89143087     0.11600
C1783       C  0.73056812  0.36820847  0.85108753    -0.03000
C1784       C  0.73904713  0.39768085  0.85965165    -0.05600
C1785       C  0.76581230  0.41287979  0.87148105    -0.20700
C1786       C  0.78421572  0.39859793  0.87512035     0.25100
C1787       C  0.77585896  0.36914533  0.86626007    -0.18200
C1788       C  0.74913224  0.35405689  0.85431339    -0.08200
C1789       C  0.81244123  0.41563247  0.88776840    -0.18500
C1790       C  0.82303250  0.39997539  0.89845791    -0.23300
C1791       C  0.85097781  0.41622602  0.91152290     0.27100
C1792       C  0.86263046  0.39758624  0.91946929    -0.20000
C1793       C  0.88886500  0.41150251  0.93176246    -0.09700
C1794       C  0.90403431  0.44447751  0.93650071    -0.10200
C1795       C  0.89221836  0.46312922  0.92875071    -0.03200
C1796       C  0.86595943  0.44921453  0.91644459    -0.18300
H1797       H  0.72530835  0.40921116  0.85688598     0.10800
H1798       H  0.77203166  0.43573486  0.87793237     0.10900
H1799       H  0.79015090  0.35800685  0.86826274     0.10500
H1800       H  0.74287107  0.33137777  0.84760947     0.11700
H1801       H  0.82381347  0.44169785  0.88855425     0.11700
H1802       H  0.81056321  0.37374126  0.89770283     0.13600
H1803       H  0.85149520  0.37211554  0.91607259     0.10200
H1804       H  0.89723883  0.39635876  0.93754964     0.12300
H1805       H  0.90325296  0.48855760  0.93219879     0.08900
H1806       H  0.85756877  0.46454170  0.91112265     0.11600
C1807       C  0.63512377  0.36298486  0.85021309    -0.03000
C1808       C  0.60417593  0.35717696  0.84613298    -0.05600
C1809       C  0.58932619  0.36852114  0.85816715    -0.20700
C1810       C  0.60505924  0.38573021  0.87451345     0.25100
C1811       C  0.63578516  0.39093020  0.87872949    -0.18200
C1812       C  0.65061342  0.37979792  0.86666873    -0.08200
C1813       C  0.58816697  0.39646482  0.88730531    -0.18500
C1814       C  0.60377360  0.42042096  0.89994863    -0.23300
C1815       C  0.58736920  0.43077738  0.91335875     0.27100
C1816       C  0.60568527  0.46104056  0.92211276    -0.20000
C1817       C  0.59148211  0.47174741  0.93500868    -0.09700
C1818       C  0.55859348  0.45226755  0.93953080    -0.10200
C1819       C  0.54035833  0.42168020  0.93104437    -0.03200
C1820       C  0.55457581  0.41096554  0.91814583    -0.18300
H1821       H  0.59108093  0.34311850  0.83395396     0.10800
H1822       H  0.56536974  0.36359785  0.85478952     0.10900
H1823       H  0.64824079  0.40276933  0.89155227     0.10500
H1824       H  0.67411075  0.38402164  0.87043435     0.11700
H1825       H  0.56221717  0.38482061  0.88575385     0.11700
H1826       H  0.62994709  0.43403759  0.90018570     0.13600
H1827       H  0.63107481  0.47660899  0.91885422     0.10200
H1828       H  0.60625373  0.49540032  0.94132707     0.12300
H1829       H  0.51499474  0.40600713  0.93429286     0.08900
H1830       H  0.53981678  0.38702587  0.91224874     0.11600
C1831       C  0.94133335  0.47308002  0.75474927    -0.03000
C1832       C  0.92327988  0.48785760  0.75141634    -0.05600
C1833       C  0.89368749  0.47661051  0.76037072    -0.20700
C1834       C  0.88131014  0.45004548  0.77259318     0.25100
C1835       C  0.90005947  0.43609443  0.77658020    -0.18200
C1836       C  0.93006946  0.44778107  0.76782003    -0.08200
C1837       C  0.84899141  0.43788077  0.78105697    -0.18500
C1838       C  0.82790221  0.40624494  0.78432660    -0.23300
C1839       C  0.79500168  0.39386332  0.79214944     0.27100
C1840       C  0.77051963  0.36175217  0.78843093    -0.20000
C1841       C  0.73989601  0.34871582  0.79656315    -0.09700
C1842       C  0.73342124  0.36743111  0.80879674    -0.10200
C1843       C  0.75743332  0.39984360  0.81202121    -0.03200
C1844       C  0.78798126  0.41290367  0.80391066    -0.18300
H1845       H  0.93169865  0.00766697  0.74145056     0.10800
H1846       H  0.87988652  0.48797827  0.75724409     0.10900
H1847       H  0.89148275  0.41612378  0.78635408     0.10500
H1848       H  0.94373868  0.43613891  0.77053771     0.11700
H1849       H  0.84148688  0.45532970  0.78319516     0.11700
H1850       H  0.83438492  0.38858270  0.78032384     0.13600
H1851       H  0.77527283  0.34656325  0.77943832     0.10200
H1852       H  0.72171871  0.32361804  0.79395946     0.12300
H1853       H  0.75280085  0.41484270  0.82124077     0.08900
H1854       H  0.80627447  0.43750047  0.80744526     0.11600
C1855       C  0.53141860  0.46359830  0.75331530    -0.03000
C1856       C  0.51581906  0.42981878  0.75179245    -0.05600
C1857       C  0.52881916  0.41302178  0.76034695    -0.20700
C1858       C  0.55793480  0.42967477  0.77035242     0.25100
C1859       C  0.57287835  0.46350736  0.77253381    -0.18200
C1860       C  0.55954698  0.48029909  0.76414014    -0.08200
C1861       C  0.57143564  0.41065178  0.77840664    -0.18500
C1862       C  0.60307436  0.42300682  0.78185891    -0.23300
C1863       C  0.61614142  0.40361122  0.78997346     0.27100
C1864       C  0.64466476  0.41960291  0.80056807    -0.20000
C1865       C  0.65663578  0.40210777  0.80946974    -0.09700
C1866       C  0.64067921  0.36834165  0.80761420    -0.10200
C1867       C  0.61328954  0.35236968  0.79615755    -0.03200
C1868       C  0.60096137  0.36981735  0.78745797    -0.18300
H1869       H  0.49401086  0.41657051  0.74350455     0.10800
H1870       H  0.51659050  0.38698877  0.75865335     0.10900
H1871       H  0.59477068  0.47706385  0.78066257     0.10500
H1872       H  0.57183181  0.50639592  0.76544352     0.11700
H1873       H  0.55450718  0.38518080  0.78110485     0.11700
H1874       H  0.62006986  0.44850047  0.77926586     0.13600
H1875       H  0.65710861  0.44560013  0.80249991     0.10200
H1876       H  0.67795585  0.41480078  0.81820450     0.12300
H1877       H  0.60079058  0.32631416  0.79454588     0.08900
H1878       H  0.57959889  0.35676365  0.77884056     0.11600
C1879       C  0.64151505  0.27004583  0.80811412    -0.03000
C1880       C  0.65813621  0.25340614  0.80926515    -0.05600
C1881       C  0.64634931  0.22381306  0.80005674    -0.20700
C1882       C  0.61734031  0.20997595  0.78991890     0.25100
C1883       C  0.60112962  0.22716517  0.78836693    -0.18200
C1884       C  0.61334239  0.25717439  0.79729404    -0.08200
C1885       C  0.60519850  0.17801671  0.78081166    -0.18500
C1886       C  0.57356495  0.15608901  0.77852826    -0.23300
C1887       C  0.56147496  0.12387223  0.76966590     0.27100
C1888       C  0.53046738  0.09811243  0.77424436    -0.20000
C1889       C  0.51778090  0.06794242  0.76547178    -0.09700
C1890       C  0.53568672  0.06320371  0.75172228    -0.10200
C1891       C  0.56691085  0.08866563  0.74738456    -0.03200
C1892       C  0.57964006  0.11875295  0.75616344    -0.18300
H1893       H  0.68001614  0.26317338  0.81752589     0.10800
H1894       H  0.65948106  0.21126772  0.80125420     0.10900
H1895       H  0.57919286  0.21757058  0.78020746     0.10500
H1896       H  0.60031647  0.26984385  0.79627008     0.11700
H1897       H  0.62294995  0.17161892  0.77703311     0.11700
H1898       H  0.55579885  0.16128549  0.78408158     0.13600
H1899       H  0.51591704  0.10144606  0.78451799     0.10200
H1900       H  0.99355203  0.04866594  0.76892366     0.12300
H1901       H  0.58119039  0.08545268  0.73686633     0.08900
H1902       H  0.60326120  0.13815135  0.75188928     0.11600
C1903       C  0.64089620  0.27246821  0.61143301    -0.03000
C1904       C  0.66296642  0.26678355  0.60213442    -0.05600
C1905       C  0.65230427  0.24248719  0.58862965    -0.20700
C1906       C  0.61937047  0.22331392  0.58436803     0.25100
C1907       C  0.59715425  0.22890962  0.59389500    -0.18200
C1908       C  0.60794504  0.25342457  0.60737389    -0.08200
C1909       C  0.60934995  0.19851512  0.56949827    -0.18500
C1910       C  0.58019661  0.17130086  0.56919832    -0.23300
C1911       C  0.57103684  0.14570020  0.55492944     0.27100
C1912       C  0.54882523  0.11363290  0.55992543    -0.20000
C1913       C  0.53939859  0.08874335  0.54693082    -0.09700
C1914       C  0.55158821  0.09544080  0.52848938    -0.10200
C1915       C  0.57364011  0.12764472  0.52338240    -0.03200
C1916       C  0.58335987  0.15259679  0.53650463    -0.18300
H1917       H  0.68848878  0.28132583  0.60526892     0.10800
H1918       H  0.66982249  0.23865779  0.58147111     0.10900
H1919       H  0.57168126  0.21514634  0.59058257     0.10500
H1920       H  0.59079677  0.25809458  0.61428155     0.11700
H1921       H  0.62739612  0.20180406  0.55922475     0.11700
H1922       H  0.56328920  0.16639649  0.58055485     0.13600
H1923       H  0.53888789  0.10777994  0.57399014     0.10200
H1924       H  0.52214034  0.06422574  0.55130979     0.12300
H1925       H  0.58325943  0.13355642  0.50926039     0.08900
H1926       H  0.59994234  0.17724188  0.53207856     0.11600
C1927       C  0.72961670  0.37129343  0.61075818    -0.03000
C1928       C  0.75498082  0.40274668  0.61497191    -0.05600
C1929       C  0.78186014  0.41845474  0.60315645    -0.20700
C1930       C  0.78348884  0.40336175  0.58669305     0.25100
C1931       C  0.75768918  0.37219860  0.58228066    -0.18200
C1932       C  0.73097602  0.35650439  0.59412226    -0.08200
C1933       C  0.81312032  0.41971246  0.57502349    -0.18500
C1934       C  0.81325759  0.41347786  0.55660475    -0.23300
C1935       C  0.84310094  0.42730357  0.54517333     0.27100
C1936       C  0.84088237  0.42926116  0.52562616    -0.20000
C1937       C  0.86826355  0.44073117  0.51430094    -0.09700
C1938       C  0.89839209  0.45017884  0.52232056    -0.10200
C1939       C  0.90053310  0.44796195  0.54190133    -0.03200
C1940       C  0.87320739  0.43657662  0.55320097    -0.18300
H1941       H  0.75416733  0.41499332  0.62751507     0.10800
H1942       H  0.80146091  0.44240853  0.60689642     0.10900
H1943       H  0.75841777  0.35934487  0.57002610     0.10500
H1944       H  0.71175710  0.33240466  0.59045847     0.11700
H1945       H  0.83531536  0.43770834  0.58182205     0.11700
H1946       H  0.79056041  0.39802249  0.54941998     0.13600
H1947       H  0.81787469  0.42190547  0.51910141     0.10200
H1948       H  0.86580636  0.44215889  0.49927650     0.12300
H1949       H  0.92332639  0.45480948  0.54853844     0.08900
H1950       H  0.87568814  0.43434982  0.56813074     0.11600
C1951       C  0.54707535  0.44004641  0.52496629    -0.03000
C1952       C  0.56200184  0.42393081  0.51768282    -0.05600
C1953       C  0.57383323  0.40954478  0.52977262    -0.20700
C1954       C  0.57122568  0.41120894  0.54933585     0.25100
C1955       C  0.55571843  0.42678731  0.55658056    -0.18200
C1956       C  0.54394391  0.44112365  0.54454783    -0.08200
C1957       C  0.58407233  0.39569503  0.56173314    -0.18500
C1958       C  0.59259988  0.40444322  0.57976913    -0.23300
C1959       C  0.60591056  0.38923089  0.59201982     0.27100
C1960       C  0.62593459  0.40705588  0.60711381    -0.20000
C1961       C  0.63969937  0.39382941  0.61857611    -0.09700
C1962       C  0.63311648  0.36228886  0.61532361    -0.10200
C1963       C  0.61243497  0.34413482  0.60058932    -0.03200
C1964       C  0.59877300  0.35734098  0.58910212    -0.18300
H1965       H  0.56461876  0.42250108  0.50267460     0.10800
H1966       H  0.58533572  0.39733466  0.52383208     0.10900
H1967       H  0.55209184  0.42757092  0.57150486     0.10500
H1968       H  0.53223087  0.45299088  0.55066224     0.11700
H1969       H  0.58810492  0.37758359  0.55543154     0.11700
H1970       H  0.59167212  0.42476225  0.58555685     0.13600
H1971       H  0.63156935  0.43156518  0.60975151     0.10200
H1972       H  0.65600893  0.40844105  0.62969691     0.12300
H1973       H  0.60689715  0.31965333  0.59795013     0.08900
H1974       H  0.58252426  0.34241656  0.57806682     0.11600
C1975       C  0.52987934  0.06007373  0.70974371    -0.03000
C1976       C  0.51609702  0.07923338  0.71229184    -0.05600
C1977       C  0.52927044  0.10930479  0.70344299    -0.20700
C1978       C  0.55667156  0.12106947  0.69195029     0.25100
C1979       C  0.56953993  0.10105063  0.68867375    -0.18200
C1980       C  0.55612498  0.07072910  0.69748279    -0.08200
C1981       C  0.57062759  0.15414654  0.68372222    -0.18500
C1982       C  0.60137546  0.17251766  0.67767640    -0.23300
C1983       C  0.61525873  0.20587386  0.66985136     0.27100
C1984       C  0.64241331  0.21812869  0.65810669    -0.20000
C1985       C  0.65576728  0.24884960  0.65000561    -0.09700
C1986       C  0.64243648  0.26816519  0.65359028    -0.10200
C1987       C  0.61624652  0.25677292  0.66595494    -0.03200
C1988       C  0.60269414  0.22588166  0.67401884    -0.18300
H1989       H  0.49574796  0.07133344  0.72167934     0.10800
H1990       H  0.51856892  0.12389572  0.70605839     0.10900
H1991       H  0.58995003  0.10864518  0.67943723     0.10500
H1992       H  0.56702474  0.05619782  0.69534879     0.11700
H1993       H  0.55488220  0.16394448  0.68316840     0.11700
H1994       H  0.61715934  0.16275864  0.67811657     0.13600
H1995       H  0.65294929  0.20358750  0.65486356     0.10200
H1996       H  0.67628702  0.25740023  0.64069613     0.12300
H1997       H  0.60573486  0.27142212  0.66894626     0.08900
H1998       H  0.58255920  0.21795558  0.68352137     0.11600
C1999       C  0.93693965  0.46168748  0.71330535    -0.03000
C2000       C  0.91240010  0.43143419  0.72000291    -0.05600
C2001       C  0.88114284  0.41712171  0.71291544    -0.20700
C2002       C  0.87413714  0.43181209  0.69826355     0.25100
C2003       C  0.89910698  0.46086940  0.69049223    -0.18200
C2004       C  0.93035093  0.47586805  0.69808527    -0.08200
C2005       C  0.84029527  0.41695743  0.69196588    -0.18500
C2006       C  0.83207304  0.41134733  0.67379431    -0.23300
C2007       C  0.79796736  0.39375400  0.66755360     0.27100
C2008       C  0.78890509  0.37189384  0.65260910    -0.20000
C2009       C  0.75747856  0.35645507  0.64560436    -0.09700
C2010       C  0.73488305  0.36373633  0.65282688    -0.10200
C2011       C  0.74339512  0.38437959  0.66838268    -0.03200
C2012       C  0.77474144  0.39928171  0.67574328    -0.18300
H2013       H  0.91714615  0.41944332  0.73129942     0.10800
H2014       H  0.86232298  0.39455233  0.71893211     0.10900
H2015       H  0.89409641  0.47261969  0.67916602     0.10500
H2016       H  0.94889444  0.49913443  0.69267193     0.11700
H2017       H  0.82151580  0.40758708  0.70261712     0.11700
H2018       H  0.85075794  0.41756052  0.66333526     0.13600
H2019       H  0.80627114  0.36696355  0.64624688     0.10200
H2020       H  0.75118647  0.33985393  0.63392979     0.12300
H2021       H  0.72638146  0.39016874  0.67426603     0.08900
H2022       H  0.78120019  0.41617967  0.68726485     0.11600
C2023       C  0.53336010  0.46485897  0.71120884    -0.03000
C2024       C  0.51529482  0.44213679  0.69724397    -0.05600
C2025       C  0.52795342  0.42556345  0.68783390    -0.20700
C2026       C  0.55883352  0.43128515  0.69224275     0.25100
C2027       C  0.57745780  0.45527419  0.70562128    -0.18200
C2028       C  0.56486730  0.47189064  0.71491280    -0.08200
C2029       C  0.57097847  0.41239043  0.68228872    -0.18500
C2030       C  0.59493794  0.40842940  0.68886441    -0.23300
C2031       C  0.60772659  0.39043940  0.67859918     0.27100
C2032       C  0.63956984  0.39826906  0.68208831    -0.20000
C2033       C  0.65319026  0.38334867  0.67195630    -0.09700
C2034       C  0.63516981  0.36017795  0.65820516    -0.10200
C2035       C  0.60269279  0.35077394  0.65553112    -0.03200
C2036       C  0.58909109  0.36578031  0.66556671    -0.18300
H2037       H  0.99103398  0.43647336  0.69404154     0.10800
H2038       H  0.51326912  0.40766068  0.67736082     0.10900
H2039       H  0.60186721  0.46164373  0.70887712     0.10500
H2040       H  0.57971803  0.49015390  0.72516661     0.11700
H2041       H  0.55940899  0.40119363  0.66908921     0.11700
H2042       H  0.60660826  0.41960492  0.70203632     0.13600
H2043       H  0.65433069  0.41680781  0.69224586     0.10200
H2044       H  0.67820662  0.39096160  0.67428413     0.12300
H2045       H  0.58808036  0.33235629  0.64528271     0.08900
H2046       H  0.56407874  0.35801578  0.66302957     0.11600
C2047       C  0.66705463  0.83455615  0.61609167     0.45700
H2048       H  0.66557754  0.83525945  0.60054638    -0.03400
C2049       C  0.67019178  0.83261656  0.65255680     0.45700
H2050       H  0.67154301  0.83159207  0.66808728    -0.03400
C2051       C  0.70154996  0.85357131  0.62359867    -0.17100
C2052       C  0.64922475  0.84866480  0.62618615    -0.16800
C2053       C  0.65287146  0.80044412  0.62394789    -0.17200
C2054       C  0.70352870  0.85197832  0.64282630    -0.17200
C2055       C  0.65075184  0.84789156  0.64544656    -0.16700
C2056       C  0.65410395  0.79897286  0.64310901    -0.17000
C2057       C  0.66882449  0.83380777  0.81067069     0.45700
H2058       H  0.66932424  0.83392725  0.79507557    -0.03400
C2059       C  0.66802581  0.83374846  0.84724880     0.45700
H2060       H  0.66778496  0.83360232  0.86284008    -0.03400
C2061       C  0.65244741  0.79970381  0.81943180    -0.17100
C2062       C  0.70269534  0.85219838  0.81967296    -0.16800
C2063       C  0.65108032  0.84980430  0.81920409    -0.17200
C2064       C  0.65212375  0.79980331  0.83871519    -0.17200
C2065       C  0.70192200  0.85219205  0.83891648    -0.16700
C2066       C  0.65044702  0.84936404  0.83850844    -0.17000
C2067       C  0.50435962  0.49923032  0.75058033     0.45700
H2068       H  0.50547156  0.50042419  0.76616142    -0.03400
C2069       C  0.50147252  0.49619190  0.71390179     0.45700
H2070       H  0.50000768  0.99504092  0.69825321    -0.03400
C2071       C  0.96967155  0.98183282  0.74275671    -0.17100
C2072       C  0.52101730  0.53251791  0.74098692    -0.16800
C2073       C  0.51970959  0.98122626  0.74178604    -0.17200
C2074       C  0.96797502  0.97942719  0.72348660    -0.17200
C2075       C  0.51921352  0.53099908  0.72169922    -0.16700
C2076       C  0.51875763  0.98016803  0.72248083    -0.17000
C2077       C  0.83842064  0.66219171  0.31081736     0.45700
H2078       H  0.83751549  0.66126258  0.29523165    -0.03400
C2079       C  0.84135572  0.66491341  0.34731578     0.45700
H2080       H  0.84247654  0.66616513  0.36289379    -0.03400
C2081       C  0.85805084  0.69692803  0.31866782    -0.17100
C2082       C  0.80508376  0.64722438  0.32036257    -0.16800
C2083       C  0.85439763  0.64467179  0.31951678    -0.17200
C2084       C  0.85961035  0.69804062  0.33789022    -0.17200
C2085       C  0.80689233  0.64895238  0.33964946    -0.16700
C2086       C  0.85558668  0.64582461  0.33879110    -0.17000
C2087       C  0.83835539  0.66174725  0.15326154     0.45700
H2088       H  0.83806042  0.66115178  0.16885477    -0.03400
C2089       C  0.83915763  0.66357545  0.11670490     0.45700
H2090       H  0.83930826  0.66433776  0.10110789    -0.03400
C2091       C  0.80463468  0.64681227  0.14433642    -0.17100
C2092       C  0.85742690  0.69631528  0.14509716    -0.16800
C2093       C  0.85361002  0.64371439  0.14413667    -0.17200
C2094       C  0.80523196  0.64789939  0.12507953    -0.17200
C2095       C  0.85765719  0.69698739  0.12583136    -0.16700
C2096       C  0.85351521  0.64439810  0.12483607    -0.17000
C2097       C  0.50522076  0.99815759  0.21374848     0.45700
H2098       H  0.50605503  0.99774597  0.19816551    -0.03400
C2099       C  0.50322396  0.99882509  0.25037387     0.45700
H2100       H  0.50237660  0.99904523  0.26596014    -0.03400
C2101       C  0.98826421  0.96433817  0.22267627    -0.17100
C2102       C  0.53876614  0.51640428  0.22309695    -0.16800
C2103       C  0.98736289  0.51421302  0.22165754    -0.17200
C2104       C  0.98700272  0.96465788  0.24192342    -0.17200
C2105       C  0.53774494  0.51653287  0.24239746    -0.16700
C2106       C  0.98654852  0.51474552  0.24096680    -0.17000
O2107       O  0.51311438  0.55892498  0.95637257    -0.78300
C2108       C  0.93194959  0.95929539  0.94952266     0.82800
O2109       O  0.97368050  0.51721739  0.01855675    -0.79400
O2110       O  0.96379070  0.91827017  0.99432204    -0.80900
O2111       O  0.55974156  0.99301573  0.95906386    -0.80700
O2112       O  0.56029339  0.56178535  0.95980473    -0.79300
Zn2113     Zn  0.98096764  0.51947128  0.97154548     1.55700
O2114       O  0.51339311  0.94580980  0.95671985    -0.80700
Cd2115     Cd  0.54902751  0.52135900  0.97550693     1.59700
Cd2116     Cd  0.49824340  0.49585535  0.00959291     1.59600
O2117       O  0.57822697  0.53541418  0.99929167    -0.80700
O2118       O  0.50208002  0.49753883  0.98191876    -1.91200
Cd2119     Cd  0.98124377  0.95195097  0.97263427     1.59900
O2120       O  0.54237655  0.51838186  0.02251341    -0.80700
O2121       O  0.94298241  0.94196215  0.95546396    -0.79300
C2122       C  0.96079458  0.53100602  0.01017575     0.83200
C2123       C  0.54335172  0.57272319  0.95308122     0.82900
O2124       O  0.94441756  0.98885777  0.95442690    -0.78300
C2125       C  0.54316723  0.96424926  0.95268457     0.83700
O2126       O  0.96182957  0.53387702  0.99232218    -0.78400
C2127       C  0.57140353  0.53222762  0.01676002     0.83800
C2128       C  0.96249676  0.92159692  0.01200360     0.84100
O2129       O  0.97392738  0.94932003  0.01950705    -0.80800
O2130       O  0.99287034  0.93617144  0.45606350    -0.78300
C2131       C  0.57898960  0.53149642  0.45266599     0.82800
O2132       O  0.52164341  0.97022076  0.51999546    -0.79400
O2133       O  0.54589875  0.57467172  0.49720485    -0.81900
O2134       O  0.95636582  0.51139069  0.45493051    -0.80700
O2135       O  0.94841472  0.93899178  0.45467462    -0.79300
Zn2136     Zn  0.52394654  0.97298052  0.47285351     1.55700
O2137       O  0.00498828  0.55619472  0.45640355    -0.80700
Cd2138     Cd  0.95975663  0.97831736  0.47145136     1.59700
Cd2139     Cd  0.50130790  0.99483939  0.50925450     1.59600
O2140       O  0.92543236  0.96372587  0.49261824    -0.80700
O2141       O  0.50446318  0.99734546  0.48155205    -1.91200
Cd2142     Cd  0.53117016  0.54388272  0.47396724     1.59900
O2143       O  0.95456047  0.97266369  0.51849312    -0.80700
O2144       O  0.57055269  0.55108656  0.45847861    -0.79300
C2145       C  0.53456319  0.95574585  0.51244936     0.83200
C2146       C  0.96438656  0.92578148  0.44994466     0.82900
O2147       O  0.56340595  0.50163656  0.45723505    -0.78300
C2148       C  0.97607330  0.54067812  0.45027178     0.83700
O2149       O  0.53700389  0.95473593  0.49464989    -0.78400
C2150       C  0.92760543  0.96277370  0.51042121     0.83800
C2151       C  0.54004332  0.56868990  0.51469342     0.84100
O2152       O  0.52387465  0.53989304  0.52092563    -0.80800
C2153       C  0.59749255  0.54426650  0.03093272    -0.03000
C2154       C  0.58972293  0.53856026  0.05012857    -0.05600
C2155       C  0.61394372  0.54887948  0.06363437    -0.20700
C2156       C  0.64649829  0.56551847  0.05835402     0.25100
C2157       C  0.65442740  0.57114571  0.03914822    -0.18200
C2158       C  0.63012453  0.56064771  0.02557768    -0.08200
C2159       C  0.67133141  0.57591816  0.07326056    -0.18500
C2160       C  0.70136127  0.60166760  0.07140269    -0.23300
C2161       C  0.72625167  0.61317693  0.08637108     0.27100
C2162       C  0.75257898  0.64502285  0.08526300    -0.20000
C2163       C  0.77755408  0.65654719  0.09833894    -0.09700
C2164       C  0.77672746  0.63644944  0.11280656    -0.10200
C2165       C  0.75027435  0.60474181  0.11422950    -0.03200
C2166       C  0.72523529  0.59309217  0.10108039    -0.18300
H2167       H  0.56490378  0.02570858  0.05484282     0.10800
H2168       H  0.60720889  0.54404238  0.07830487     0.10900
H2169       H  0.67926367  0.58304340  0.03450953     0.10500
H2170       H  0.63688445  0.56513430  0.01090673     0.11700
H2171       H  0.66379604  0.56316173  0.08655604     0.11700
H2172       H  0.70769149  0.61606801  0.05867308     0.13600
H2173       H  0.75403504  0.66095771  0.07408400     0.10200
H2174       H  0.79783956  0.68108931  0.09699075     0.12300
H2175       H  0.74963632  0.58861611  0.12502862     0.08900
H2176       H  0.70589486  0.56811433  0.10214923     0.11600
C2177       C  0.86982668  0.72654789  0.11439879    -0.03000
C2178       C  0.85669336  0.74637731  0.11646267    -0.05600
C2179       C  0.86699301  0.77331767  0.10485373    -0.20700
C2180       C  0.89011216  0.78041483  0.09083781     0.25100
C2181       C  0.90369960  0.76083538  0.08912004    -0.18200
C2182       C  0.89347929  0.73403962  0.10076920    -0.08200
C2183       C  0.90029390  0.80882442  0.07854654    -0.18500
C2184       C  0.91061808  0.81010055  0.06084203    -0.23300
C2185       C  0.92229819  0.83878993  0.04854594     0.27100
C2186       C  0.92214727  0.83476439  0.02902135    -0.20000
C2187       C  0.93466717  0.86151821  0.01702671    -0.09700
C2188       C  0.94784264  0.89286917  0.02439306    -0.10200
C2189       C  0.94778627  0.89682100  0.04395594    -0.03200
C2190       C  0.93529771  0.87014226  0.05590673    -0.18300
H2191       H  0.83816066  0.74069334  0.12686209     0.10800
H2192       H  0.85645941  0.78826846  0.10656311     0.10900
H2193       H  0.92251506  0.76637152  0.07897370     0.10500
H2194       H  0.90434313  0.71943211  0.09929575     0.11700
H2195       H  0.89785086  0.82846651  0.08401065     0.11700
H2196       H  0.90976429  0.78895246  0.05485995     0.13600
H2197       H  0.91248599  0.81084534  0.02304019     0.10200
H2198       H  0.43438532  0.85767868  0.00203237     0.12300
H2199       H  0.95796511  0.92066369  0.05012712     0.08900
H2200       H  0.93682552  0.87438702  0.07088150     0.11600
C2201       C  0.94445421  0.54378295  0.02181324    -0.03000
C2202       C  0.93155691  0.56136406  0.01389601    -0.05600
C2203       C  0.91712966  0.57399119  0.02535959    -0.20700
C2204       C  0.91505052  0.56903561  0.04488485     0.25100
C2205       C  0.92786790  0.55131890  0.05273986    -0.18200
C2206       C  0.94221841  0.53877147  0.04134645    -0.08200
C2207       C  0.90165428  0.58465234  0.05677006    -0.18500
C2208       C  0.89112466  0.57530578  0.07450190    -0.23300
C2209       C  0.88129053  0.59325929  0.08709694     0.27100
C2210       C  0.86172012  0.57733812  0.10272621    -0.20000
C2211       C  0.85288402  0.59389194  0.11517521    -0.09700
C2212       C  0.86388059  0.62680968  0.11233695    -0.10200
C2213       C  0.88355314  0.64272374  0.09682632    -0.03200
C2214       C  0.89244318  0.62630096  0.08442446    -0.18300
H2215       H  0.93298086  0.56572101  0.99891519     0.10800
H2216       H  0.90778906  0.58789680  0.01897955     0.10900
H2217       H  0.92788568  0.54785602  0.06773149     0.10500
H2218       H  0.95201957  0.52547281  0.04797220     0.11700
H2219       H  0.90044962  0.60453907  0.05055297     0.11700
H2220       H  0.88922829  0.55346530  0.08009502     0.13600
H2221       H  0.85304599  0.55197602  0.10521910     0.10200
H2222       H  0.83714101  0.58090670  0.12686270     0.12300
H2223       H  0.89237838  0.66802440  0.09436946     0.08900
H2224       H  0.90855267  0.63985436  0.07301702     0.11600
C2225       C  0.87218166  0.72607347  0.15678198    -0.03000
C2226       C  0.85372560  0.73049479  0.17029553    -0.05600
C2227       C  0.86619217  0.76039660  0.17938821    -0.20700
C2228       C  0.89749502  0.78618096  0.17535861     0.25100
C2229       C  0.91625928  0.78124544  0.16219837    -0.18200
C2230       C  0.90377001  0.75145536  0.15311724    -0.08200
C2231       C  0.90916832  0.81835776  0.18421588    -0.18500
C2232       C  0.94072275  0.84060636  0.18653120    -0.23300
C2233       C  0.95273295  0.87302372  0.19502962     0.27100
C2234       C  0.98261668  0.88822112  0.20431370    -0.20000
C2235       C  0.99463501  0.91847747  0.21274550    -0.09700
C2236       C  0.97731372  0.93440637  0.21168883    -0.10200
C2237       C  0.94815248  0.92010767  0.20173500    -0.03200
C2238       C  0.93576681  0.88947892  0.19356140    -0.18300
H2239       H  0.82918767  0.71131991  0.17319356     0.10800
H2240       H  0.85116375  0.76358066  0.18937553     0.10900
H2241       H  0.94011838  0.80063227  0.15829461     0.10500
H2242       H  0.91843747  0.74852945  0.14273642     0.11700
H2243       H  0.89114311  0.82339907  0.18949264     0.11700
H2244       H  0.95866799  0.83435731  0.18299243     0.13600
H2245       H  0.49633301  0.87626919  0.20544258     0.10200
H2246       H  0.51716426  0.92923777  0.22044156     0.12300
H2247       H  0.93448626  0.93214089  0.20088114     0.08900
H2248       H  0.91311532  0.87887721  0.18604368     0.11600
C2249       C  0.97205900  0.52731682  0.20936355    -0.03000
C2250       C  0.99025198  0.55022990  0.19552587    -0.05600
C2251       C  0.97678452  0.56512914  0.18525524    -0.20700
C2252       C  0.94496684  0.55741762  0.18868927     0.25100
C2253       C  0.92626776  0.53312515  0.20189567    -0.18200
C2254       C  0.93971316  0.51821145  0.21209307    -0.08200
C2255       C  0.93206098  0.57490780  0.17811579    -0.18500
C2256       C  0.90814232  0.57892156  0.18463838    -0.23300
C2257       C  0.89527729  0.59678006  0.17437278     0.27100
C2258       C  0.86467088  0.59125371  0.17928617    -0.20000
C2259       C  0.85139239  0.60710636  0.16980918    -0.09700
C2260       C  0.86847162  0.62870081  0.15520132    -0.10200
C2261       C  0.89959446  0.63533008  0.15077851    -0.03200
C2262       C  0.91290405  0.61957596  0.16023309    -0.18300
H2263       H  0.01519917  0.55741002  0.19314509     0.10800
H2264       H  0.99154154  0.58338128  0.17495902     0.10900
H2265       H  0.90125350  0.52542055  0.20437030     0.10500
H2266       H  0.92502308  0.49991897  0.22238314     0.11700
H2267       H  0.94340742  0.58541248  0.16476681     0.11700
H2268       H  0.89709943  0.56850257  0.19807623     0.13600
H2269       H  0.85075040  0.57419266  0.19029729     0.10200
H2270       H  0.82746801  0.60185232  0.17354148     0.12300
H2271       H  0.91357397  0.65264830  0.13988855     0.08900
H2272       H  0.93707037  0.62570861  0.15650565     0.11600
C2273       C  0.77517533  0.63652853  0.15551048    -0.03000
C2274       C  0.76009466  0.65472196  0.15489406    -0.05600
C2275       C  0.73104227  0.64409582  0.16440902    -0.20700
C2276       C  0.71625492  0.61476991  0.17436826     0.25100
C2277       C  0.73207355  0.59713235  0.17548172    -0.18200
C2278       C  0.76142027  0.60806133  0.16616548    -0.08200
C2279       C  0.68448547  0.60339030  0.18345346    -0.18500
C2280       C  0.66210705  0.57174368  0.18553621    -0.23300
C2281       C  0.62971267  0.55931330  0.19413325     0.27100
C2282       C  0.60568106  0.52679447  0.19104012    -0.20000
C2283       C  0.57556339  0.51329461  0.19979295    -0.09700
C2284       C  0.56908556  0.53193333  0.21205380    -0.10200
C2285       C  0.59257932  0.56467548  0.21480396    -0.03200
C2286       C  0.62267261  0.57827954  0.20598559    -0.18300
H2287       H  0.77067652  0.67696141  0.14684414     0.10800
H2288       H  0.71961927  0.65834873  0.16355747     0.10900
H2289       H  0.72189050  0.57497622  0.18354875     0.10500
H2290       H  0.77291563  0.59387673  0.16683561     0.11700
H2291       H  0.67874515  0.62163294  0.18725038     0.11700
H2292       H  0.66721561  0.55384386  0.18003766     0.13600
H2293       H  0.61042059  0.51159553  0.18204608     0.10200
H2294       H  0.55736936  0.98807804  0.19722911     0.12300
H2295       H  0.58792034  0.57943725  0.22422806     0.08900
H2296       H  0.64055114  0.60320417  0.20908151     0.11600
C2297       C  0.60684572  0.54345761  0.43972068    -0.03000
C2298       C  0.61841381  0.52327815  0.43419735    -0.05600
C2299       C  0.64326785  0.53391372  0.42099736    -0.20700
C2300       C  0.65716026  0.56491373  0.41302871     0.25100
C2301       C  0.64552112  0.58509512  0.41855309    -0.18200
C2302       C  0.62084643  0.57454957  0.43183296    -0.08200
C2303       C  0.68274062  0.57472750  0.39853881    -0.18500
C2304       C  0.70327390  0.60573758  0.39355513    -0.23300
C2305       C  0.72902117  0.61579177  0.37921075     0.27100
C2306       C  0.75523186  0.64777697  0.37965418    -0.20000
C2307       C  0.78019326  0.65842799  0.36661101    -0.09700
C2308       C  0.77924307  0.63745604  0.35266453    -0.10200
C2309       C  0.75287369  0.60559843  0.35189451    -0.03200
C2310       C  0.72782895  0.59484351  0.36500071    -0.18300
H2311       H  0.60802786  0.49909948  0.43991371     0.10800
H2312       H  0.65155082  0.51776252  0.41691377     0.10900
H2313       H  0.65460818  0.60870363  0.41235734     0.10500
H2314       H  0.61215551  0.59051108  0.43554213     0.11700
H2315       H  0.68541219  0.55567811  0.39235049     0.11700
H2316       H  0.70255390  0.62502598  0.40092702     0.13600
H2317       H  0.75661642  0.66450464  0.39029669     0.10200
H2318       H  0.80032443  0.68314274  0.36739846     0.12300
H2319       H  0.75184746  0.58899869  0.34128643     0.08900
H2320       H  0.70759640  0.57031758  0.36381033     0.11600
C2321       C  0.87637531  0.72787348  0.34913896    -0.03000
C2322       C  0.90623008  0.73715268  0.35731912    -0.05600
C2323       C  0.92137429  0.76429347  0.36895761    -0.20700
C2324       C  0.90657269  0.78215615  0.37286883     0.25100
C2325       C  0.87692178  0.77320501  0.36419957    -0.18200
C2326       C  0.86193943  0.74617520  0.35241303    -0.08200
C2327       C  0.92288521  0.80998943  0.38593992    -0.18500
C2328       C  0.90665919  0.81975313  0.39676017    -0.23300
C2329       C  0.92230776  0.84680768  0.41046137     0.27100
C2330       C  0.90481530  0.86080220  0.41685409    -0.20000
C2331       C  0.91833372  0.88621812  0.42977852    -0.09700
C2332       C  0.94967008  0.89809717  0.43673674    -0.10200
C2333       C  0.96703001  0.88374494  0.43060375    -0.03200
C2334       C  0.95350289  0.85831234  0.41766219    -0.18300
H2335       H  0.91785636  0.72347262  0.35460332     0.10800
H2336       H  0.94438409  0.77096404  0.37524657     0.10900
H2337       H  0.86535378  0.78706610  0.36636804     0.10500
H2338       H  0.83891304  0.73924524  0.34605244     0.11700
H2339       H  0.94890043  0.82177838  0.38705073     0.11700
H2340       H  0.88057505  0.80745969  0.39560291     0.13600
H2341       H  0.88064863  0.85222329  0.41169254     0.10200
H2342       H  0.90424527  0.89665931  0.43423240     0.12300
H2343       H  0.49115078  0.89218827  0.43577839     0.08900
H2344       H  0.96748451  0.84758843  0.41365562     0.11600
C2345       C  0.96498421  0.55684971  0.43723409    -0.03000
C2346       C  0.98646751  0.58824935  0.43052505    -0.05600
C2347       C  0.97585588  0.60314335  0.41801466    -0.20700
C2348       C  0.94372229  0.58688055  0.41182060     0.25100
C2349       C  0.92211344  0.55564998  0.41872772    -0.18200
C2350       C  0.93267930  0.54077881  0.43122245    -0.08200
C2351       C  0.93317065  0.60357874  0.39877140    -0.18500
C2352       C  0.90822378  0.58752302  0.38684785    -0.23300
C2353       C  0.89639622  0.60369483  0.37425926     0.27100
C2354       C  0.87732752  0.58653526  0.35874393    -0.20000
C2355       C  0.86428907  0.60021411  0.34710143    -0.09700
C2356       C  0.87024732  0.63147001  0.35068416    -0.10200
C2357       C  0.88904226  0.64851358  0.36629778    -0.03200
C2358       C  0.90198103  0.63483563  0.37798952    -0.18300
H2359       H  0.01150401  0.60129765  0.43488522     0.10800
H2360       H  0.99286207  0.62735167  0.41303535     0.10900
H2361       H  0.89688646  0.54280922  0.41481603     0.10500
H2362       H  0.91541537  0.51669875  0.43625150     0.11700
H2363       H  0.94725545  0.62983762  0.39856187     0.11700
H2364       H  0.89634121  0.56135732  0.38583358     0.13600
H2365       H  0.87217480  0.56228729  0.35574735     0.10200
H2366       H  0.84887624  0.58599466  0.33559826     0.12300
H2367       H  0.89359087  0.67239005  0.36961136     0.08900
H2368       H  0.91551878  0.64843953  0.39016959     0.11600
C2369       C  0.87288797  0.72618358  0.30662913    -0.03000
C2370       C  0.85412208  0.73035347  0.29324613    -0.05600
C2371       C  0.86696429  0.75944775  0.28329480    -0.20700
C2372       C  0.89867792  0.78489350  0.28666070     0.25100
C2373       C  0.91800533  0.77995765  0.29935539    -0.18200
C2374       C  0.90522727  0.75078555  0.30916242    -0.08200
C2375       C  0.91087507  0.81595284  0.27648517    -0.18500
C2376       C  0.93379337  0.84481217  0.28346370    -0.23300
C2377       C  0.94601086  0.87599683  0.27335515     0.27100
C2378       C  0.97683984  0.90221239  0.27779457    -0.20000
C2379       C  0.98982505  0.93145493  0.26796665    -0.09700
C2380       C  0.97211253  0.93495928  0.25358891    -0.10200
C2381       C  0.94060811  0.90951391  0.24985790    -0.03200
C2382       C  0.92764882  0.88028485  0.25960104    -0.18300
H2383       H  0.82918903  0.71155330  0.29098401     0.10800
H2384       H  0.85178165  0.76246292  0.27334535     0.10900
H2385       H  0.94299992  0.79841800  0.30166915     0.10500
H2386       H  0.92054278  0.74754480  0.31886510     0.11700
H2387       H  0.89984717  0.81479606  0.26302994     0.11700
H2388       H  0.94465950  0.84576710  0.29696078     0.13600
H2389       H  0.49126114  0.89975502  0.28854926     0.10200
H2390       H  0.51408408  0.95094976  0.27115560     0.12300
H2391       H  0.92608957  0.91220038  0.23928248     0.08900
H2392       H  0.90323832  0.86133419  0.25636243     0.11600
C2393       C  0.97139978  0.52955553  0.25192338    -0.03000
C2394       C  0.94776752  0.51121998  0.26537299    -0.05600
C2395       C  0.93104834  0.52399921  0.27436134    -0.20700
C2396       C  0.93806075  0.55550245  0.27028861     0.25100
C2397       C  0.96257844  0.57419730  0.25720948    -0.18200
C2398       C  0.97921120  0.56138162  0.24823311    -0.08200
C2399       C  0.91821245  0.56736755  0.27912363    -0.18500
C2400       C  0.92849092  0.59899589  0.28125874    -0.23300
C2401       C  0.90863609  0.61067890  0.29018038     0.27100
C2402       C  0.92433241  0.64015410  0.29995404    -0.20000
C2403       C  0.90653324  0.65152268  0.30903723    -0.09700
C2404       C  0.87273981  0.63392699  0.30818975    -0.10200
C2405       C  0.85688599  0.60525505  0.29771291    -0.03200
C2406       C  0.87469735  0.59352842  0.28885236    -0.18300
H2407       H  0.94109976  0.98658096  0.26816015     0.10800
H2408       H  0.91226468  0.50908042  0.28433927     0.10900
H2409       H  0.96826874  0.59826658  0.25333382     0.10500
H2410       H  0.49761050  0.57600699  0.23799478     0.11700
H2411       H  0.89477331  0.54934935  0.28467570     0.11700
H2412       H  0.95307794  0.61711608  0.27747876     0.13600
H2413       H  0.95041733  0.65398803  0.30097802     0.10200
H2414       H  0.91906904  0.67379658  0.31704598     0.12300
H2415       H  0.83078797  0.59144453  0.29695352     0.08900
H2416       H  0.86192618  0.57119818  0.28095111     0.11600
C2417       C  0.56683445  0.53102999  0.25453777    -0.03000
C2418       C  0.57147512  0.55375643  0.26834629    -0.05600
C2419       C  0.60032805  0.56956959  0.27859445    -0.20700
C2420       C  0.62499219  0.56294309  0.27518469     0.25100
C2421       C  0.61937589  0.53874673  0.26204660    -0.18200
C2422       C  0.59059245  0.52298257  0.25186698    -0.08200
C2423       C  0.65592021  0.58122128  0.28576118    -0.18500
C2424       C  0.68409664  0.58533508  0.27939013    -0.23300
C2425       C  0.71518640  0.60267180  0.28985347     0.27100
C2426       C  0.73954003  0.59621652  0.28516756    -0.20000
C2427       C  0.76888472  0.61119036  0.29485958    -0.09700
C2428       C  0.77456011  0.63302145  0.30943881    -0.10200
C2429       C  0.75090026  0.64074078  0.31359119    -0.03200
C2430       C  0.72143015  0.62563143  0.30397388    -0.18300
H2431       H  0.55323786  0.56001368  0.27075643     0.10800
H2432       H  0.60373076  0.58761816  0.28888039     0.10900
H2433       H  0.63695142  0.53166702  0.25962763     0.10500
H2434       H  0.58700136  0.50470985  0.24169817     0.11700
H2435       H  0.65526837  0.59186641  0.29904129     0.11700
H2436       H  0.68458348  0.57493139  0.26598269     0.13600
H2437       H  0.73560762  0.57900890  0.27418420     0.10200
H2438       H  0.78685674  0.60508260  0.29126859     0.12300
H2439       H  0.75517671  0.65841521  0.32433094     0.08900
H2440       H  0.70392295  0.63234213  0.30752162     0.11600
C2441       C  0.55933513  0.60179436  0.94084403    -0.03000
C2442       C  0.59243217  0.61659538  0.93673681    -0.05600
C2443       C  0.60740523  0.64303078  0.92454479    -0.20700
C2444       C  0.58972183  0.65524054  0.91602051     0.25100
C2445       C  0.55676353  0.64104440  0.92049639    -0.18200
C2446       C  0.54173910  0.61453607  0.93272540    -0.08200
C2447       C  0.60679640  0.68311830  0.90290571    -0.18500
C2448       C  0.59174317  0.69041371  0.88959144    -0.23300
C2449       C  0.60870241  0.71798909  0.87622140     0.27100
C2450       C  0.59194300  0.71864112  0.86027489    -0.20000
C2451       C  0.60627591  0.74466023  0.84772646    -0.09700
C2452       C  0.63776763  0.77059551  0.85085432    -0.10200
C2453       C  0.65467969  0.77000686  0.86669052    -0.03200
C2454       C  0.64035426  0.74408498  0.87928907    -0.18300
H2455       H  0.60680952  0.60755595  0.94278865     0.10800
H2456       H  0.63287454  0.65369745  0.92154305     0.10900
H2457       H  0.54250055  0.65042547  0.91477900     0.10500
H2458       H  0.51629322  0.60392492  0.93573358     0.11700
H2459       H  0.63291729  0.69688263  0.90371863     0.11700
H2460       H  0.56585956  0.67484271  0.88782568     0.13600
H2461       H  0.56744552  0.69912849  0.85764521     0.10200
H2462       H  0.59234922  0.74498970  0.83593424     0.12300
H2463       H  0.67892123  0.78991729  0.86947076     0.08900
H2464       H  0.65396377  0.74525039  0.89159135     0.11600
C2465       C  0.73059451  0.86833628  0.85106832    -0.03000
C2466       C  0.73904359  0.89782731  0.85959942    -0.05600
C2467       C  0.76574169  0.91303685  0.87147985    -0.20700
C2468       C  0.78413095  0.89876377  0.87519462     0.25100
C2469       C  0.77583944  0.86932116  0.86633882    -0.18200
C2470       C  0.74916306  0.85420892  0.85435344    -0.08200
C2471       C  0.81227174  0.91579682  0.88791419    -0.18500
C2472       C  0.82293718  0.90015521  0.89856136    -0.23300
C2473       C  0.85086901  0.91638696  0.91164176     0.27100
C2474       C  0.86249185  0.89771802  0.91958554    -0.20000
C2475       C  0.88874301  0.91160681  0.93186654    -0.09700
C2476       C  0.90396710  0.94458669  0.93659665    -0.10200
C2477       C  0.89217475  0.96326946  0.92885758    -0.03200
C2478       C  0.86589942  0.94938198  0.91655882    -0.18300
H2479       H  0.72531223  0.90934886  0.85678390     0.10800
H2480       H  0.77191144  0.93588838  0.87791621     0.10900
H2481       H  0.79012712  0.85818925  0.86838307     0.10500
H2482       H  0.74292826  0.83151489  0.84767963     0.11700
H2483       H  0.82353391  0.94184384  0.88877610     0.11700
H2484       H  0.81055368  0.87393241  0.89774923     0.13600
H2485       H  0.85132536  0.87224336  0.91619159     0.10200
H2486       H  0.89709093  0.89643771  0.93764794     0.12300
H2487       H  0.90325088  0.98870396  0.93230098     0.08900
H2488       H  0.85755088  0.96473903  0.91122835     0.11600
C2489       C  0.63514274  0.86290920  0.85048481    -0.03000
C2490       C  0.60411242  0.85696712  0.84653632    -0.05600
C2491       C  0.58938882  0.86839254  0.85860511    -0.20700
C2492       C  0.60533396  0.88582300  0.87485500     0.25100
C2493       C  0.63613778  0.89112361  0.87895297    -0.18200
C2494       C  0.65083000  0.87988693  0.86686053    -0.08200
C2495       C  0.58854295  0.89666078  0.88765490    -0.18500
C2496       C  0.60413549  0.92043700  0.90040353    -0.23300
C2497       C  0.58768486  0.93078302  0.91378533     0.27100
C2498       C  0.60601545  0.96090320  0.92269147    -0.20000
C2499       C  0.59171794  0.97160193  0.93552680    -0.09700
C2500       C  0.55872168  0.95225262  0.93982960    -0.10200
C2501       C  0.54048071  0.92179398  0.93120932    -0.03200
C2502       C  0.55478874  0.91108705  0.91837798    -0.18300
H2503       H  0.59088525  0.84278193  0.83441984     0.10800
H2504       H  0.56536639  0.86337239  0.85532351     0.10900
H2505       H  0.64877685  0.90312695  0.89169895     0.10500
H2506       H  0.67438606  0.88417750  0.87053239     0.11700
H2507       H  0.56262709  0.88520714  0.88602219     0.11700
H2508       H  0.63030063  0.93390220  0.90076191     0.13600
H2509       H  0.63148153  0.97637081  0.91959234     0.10200
H2510       H  0.60649902  0.99514689  0.94196743     0.12300
H2511       H  0.51503765  0.90622209  0.93429281     0.08900
H2512       H  0.53999748  0.88723709  0.91237761     0.11600
C2513       C  0.94115130  0.97304670  0.75469369    -0.03000
C2514       C  0.92321026  0.98796577  0.75143330    -0.05600
C2515       C  0.89362675  0.97676370  0.76039293    -0.20700
C2516       C  0.88113442  0.95009397  0.77254219     0.25100
C2517       C  0.89977555  0.93599985  0.77646418    -0.18200
C2518       C  0.92978429  0.94764702  0.76770476    -0.08200
C2519       C  0.84881324  0.93797080  0.78100031    -0.18500
C2520       C  0.82758202  0.90631601  0.78412766    -0.23300
C2521       C  0.79469025  0.89395942  0.79197326     0.27100
C2522       C  0.77016070  0.86187548  0.78822714    -0.20000
C2523       C  0.73957782  0.84882230  0.79642217    -0.09700
C2524       C  0.73318424  0.86749407  0.80874200    -0.10200
C2525       C  0.75722107  0.89989646  0.81196892    -0.03200
C2526       C  0.78773115  0.91296947  0.80380270    -0.18300
H2527       H  0.93168936  0.50747878  0.74138353     0.10800
H2528       H  0.87991556  0.98824685  0.75732094     0.10900
H2529       H  0.89111021  0.91594491  0.78618390     0.10500
H2530       H  0.94336634  0.93589698  0.77037112     0.11700
H2531       H  0.84144096  0.95549537  0.78325274     0.11700
H2532       H  0.83396436  0.88862637  0.78001185     0.13600
H2533       H  0.77485471  0.84670847  0.77917701     0.10200
H2534       H  0.72137781  0.82373692  0.79380431     0.12300
H2535       H  0.75264564  0.91487723  0.82123828     0.08900
H2536       H  0.80604623  0.93754590  0.80735752     0.11600
C2537       C  0.53120871  0.96345379  0.75317576    -0.03000
C2538       C  0.51574066  0.92969736  0.75154012    -0.05600
C2539       C  0.52868956  0.91288991  0.76014315    -0.20700
C2540       C  0.55762549  0.92950614  0.77031972     0.25100
C2541       C  0.57244198  0.96331003  0.77259946    -0.18200
C2542       C  0.55916148  0.98011117  0.76415145    -0.08200
C2543       C  0.57106214  0.91046836  0.77844804    -0.18500
C2544       C  0.60264296  0.92287565  0.78211937    -0.23300
C2545       C  0.61568242  0.90348336  0.79028439     0.27100
C2546       C  0.64410186  0.91947798  0.80097080    -0.20000
C2547       C  0.65612813  0.90201553  0.80985082    -0.09700
C2548       C  0.64033232  0.86827546  0.80789155    -0.10200
C2549       C  0.61300649  0.85229787  0.79638581    -0.03200
C2550       C  0.60062658  0.86971302  0.78769961    -0.18300
H2551       H  0.49405966  0.91647418  0.74314481     0.10800
H2552       H  0.51655514  0.88687852  0.75836765     0.10900
H2553       H  0.59418547  0.97683643  0.78085615     0.10500
H2554       H  0.57134054  0.00618702  0.76555202     0.11700
H2555       H  0.55414372  0.88495062  0.78101348     0.11700
H2556       H  0.61961958  0.94841438  0.77965096     0.13600
H2557       H  0.65644593  0.94545588  0.80296757     0.10200
H2558       H  0.67738832  0.91471559  0.81863163     0.12300
H2559       H  0.60061974  0.82626168  0.79470134     0.08900
H2560       H  0.57934407  0.85665384  0.77902149     0.11600
C2561       C  0.64140319  0.77004268  0.80818980    -0.03000
C2562       C  0.65771350  0.75311813  0.80960069    -0.05600
C2563       C  0.64595942  0.72356193  0.80036179    -0.20700
C2564       C  0.61727902  0.71003783  0.78992706     0.25100
C2565       C  0.60137325  0.72748819  0.78812180    -0.18200
C2566       C  0.61357123  0.75747492  0.79708079    -0.08200
C2567       C  0.60516199  0.67811505  0.78079032    -0.18500
C2568       C  0.57353734  0.65626429  0.77840857    -0.23300
C2569       C  0.56147284  0.62402146  0.76958916     0.27100
C2570       C  0.53043711  0.59828260  0.77413572    -0.20000
C2571       C  0.51780191  0.56808024  0.76541098    -0.09700
C2572       C  0.53578808  0.56329411  0.75173865    -0.10200
C2573       C  0.56703376  0.58873690  0.74743026    -0.03200
C2574       C  0.57971624  0.61885193  0.75616711    -0.18300
H2575       H  0.67933103  0.76264306  0.81808257     0.10800
H2576       H  0.65884700  0.71079900  0.80176334     0.10900
H2577       H  0.57969168  0.71810569  0.77974094     0.10500
H2578       H  0.60078475  0.77035883  0.79585154     0.11700
H2579       H  0.62290000  0.67164361  0.77711716     0.11700
H2580       H  0.55576852  0.66153723  0.78386818     0.13600
H2581       H  0.51583035  0.60165545  0.78434880     0.10200
H2582       H  0.99355046  0.54881534  0.76883327     0.12300
H2583       H  0.58136051  0.58548731  0.73696148     0.08900
H2584       H  0.60336464  0.63823491  0.75192069     0.11600
C2585       C  0.64087729  0.77254364  0.61128771    -0.03000
C2586       C  0.66301138  0.76699578  0.60195195    -0.05600
C2587       C  0.65240453  0.74268660  0.58845897    -0.20700
C2588       C  0.61946530  0.72337367  0.58424371     0.25100
C2589       C  0.59719413  0.72885648  0.59379962    -0.18200
C2590       C  0.60792621  0.75336828  0.60727226    -0.08200
C2591       C  0.60947895  0.69854317  0.56939481    -0.18500
C2592       C  0.58031642  0.67133931  0.56909636    -0.23300
C2593       C  0.57106129  0.64574007  0.55481639     0.27100
C2594       C  0.54857574  0.61373057  0.55977314    -0.20000
C2595       C  0.53901681  0.58883031  0.54677460    -0.09700
C2596       C  0.55136757  0.59545971  0.52837079    -0.10200
C2597       C  0.57365580  0.62761175  0.52328924    -0.03200
C2598       C  0.58350218  0.65257662  0.53641603    -0.18300
H2599       H  0.68853507  0.78163105  0.60506317     0.10800
H2600       H  0.66996670  0.73895151  0.58127802     0.10900
H2601       H  0.57171246  0.71500426  0.59052075     0.10500
H2602       H  0.59072702  0.75792922  0.61421128     0.11700
H2603       H  0.62752767  0.70183219  0.55912420     0.11700
H2604       H  0.56341549  0.66645481  0.58045244     0.13600
H2605       H  0.53852566  0.60792647  0.57381309     0.10200
H2606       H  0.52156103  0.56435596  0.55112531     0.12300
H2607       H  0.58339745  0.63346629  0.50919206     0.08900
H2608       H  0.60028402  0.67718224  0.53201018     0.11600
C2609       C  0.72954883  0.87133196  0.61070098    -0.03000
C2610       C  0.75503099  0.90269726  0.61498105    -0.05600
C2611       C  0.78195605  0.91837007  0.60319301    -0.20700
C2612       C  0.78350883  0.90336372  0.58667182     0.25100
C2613       C  0.75759063  0.87231521  0.58217789    -0.18200
C2614       C  0.73084344  0.85663676  0.59400362    -0.08200
C2615       C  0.81316839  0.91967528  0.57501705    -0.18500
C2616       C  0.81325859  0.91373214  0.55654678    -0.23300
C2617       C  0.84309934  0.92751458  0.54510174     0.27100
C2618       C  0.84092800  0.92976446  0.52556983    -0.20000
C2619       C  0.86829486  0.94118030  0.51423049    -0.09700
C2620       C  0.89836262  0.95029778  0.52222018    -0.10200
C2621       C  0.90045282  0.94779102  0.54178134    -0.03200
C2622       C  0.87314599  0.93645130  0.55309243    -0.18300
H2623       H  0.75427754  0.91490991  0.62755451     0.10800
H2624       H  0.80164400  0.94224039  0.60699378     0.10900
H2625       H  0.75825365  0.85954056  0.56986542     0.10500
H2626       H  0.71153987  0.83262160  0.59026922     0.11700
H2627       H  0.83542058  0.93741664  0.58187298     0.11700
H2628       H  0.79052151  0.89854624  0.54933743     0.13600
H2629       H  0.81796809  0.92267569  0.51906815     0.10200
H2630       H  0.86587972  0.94284373  0.49922195     0.12300
H2631       H  0.92319323  0.95436873  0.54839492     0.08900
H2632       H  0.87559230  0.93399324  0.56799990     0.11600
C2633       C  0.54693084  0.93999534  0.52491318    -0.03000
C2634       C  0.56168340  0.92372065  0.51761625    -0.05600
C2635       C  0.57351821  0.90933602  0.52969854    -0.20700
C2636       C  0.57108755  0.91116851  0.54926234     0.25100
C2637       C  0.55572945  0.92688558  0.55652065    -0.18200
C2638       C  0.54394988  0.94121750  0.54449605    -0.08200
C2639       C  0.58395902  0.89568435  0.56165150    -0.18500
C2640       C  0.59262449  0.90454760  0.57965777    -0.23300
C2641       C  0.60588927  0.88931329  0.59191634     0.27100
C2642       C  0.62594240  0.90714372  0.60699835    -0.20000
C2643       C  0.63965376  0.89388262  0.61847286    -0.09700
C2644       C  0.63299685  0.86231409  0.61523459    -0.10200
C2645       C  0.61228943  0.84415849  0.60051392    -0.03200
C2646       C  0.59866857  0.85739101  0.58902118    -0.18300
H2647       H  0.56416371  0.92216775  0.50260458     0.10800
H2648       H  0.58489241  0.89700406  0.52375204     0.10900
H2649       H  0.55222883  0.92779010  0.57145034     0.10500
H2650       H  0.53237110  0.95321278  0.55061844     0.11700
H2651       H  0.58787476  0.87748479  0.55536682     0.11700
H2652       H  0.59181917  0.92495170  0.58541573     0.13600
H2653       H  0.63163570  0.93167688  0.60961860     0.10200
H2654       H  0.65598482  0.90848775  0.62958753     0.12300
H2655       H  0.60670195  0.81965630  0.59789002     0.08900
H2656       H  0.58238679  0.84245746  0.57800094     0.11600
C2657       C  0.52997466  0.56006703  0.70976714    -0.03000
C2658       C  0.51622580  0.57925010  0.71235581    -0.05600
C2659       C  0.52934087  0.60929264  0.70347934    -0.20700
C2660       C  0.55664197  0.62100475  0.69190643     0.25100
C2661       C  0.56947118  0.60096050  0.68859021    -0.18200
C2662       C  0.55612151  0.57067113  0.69743476    -0.08200
C2663       C  0.57053872  0.65405976  0.68364771    -0.18500
C2664       C  0.60121766  0.67238522  0.67748060    -0.23300
C2665       C  0.61506598  0.70574277  0.66965561     0.27100
C2666       C  0.64210432  0.71795042  0.65782061    -0.20000
C2667       C  0.65546829  0.74869661  0.64975100    -0.09700
C2668       C  0.64225731  0.76808987  0.65344321    -0.10200
C2669       C  0.61617314  0.75673065  0.66588840    -0.03200
C2670       C  0.60261535  0.72581428  0.67392745    -0.18300
H2671       H  0.49594829  0.57139155  0.72179503     0.10800
H2672       H  0.51866994  0.62390088  0.70613140     0.10900
H2673       H  0.58980244  0.60850988  0.67929608     0.10500
H2674       H  0.56699482  0.55612386  0.69526585     0.11700
H2675       H  0.55481676  0.66389060  0.68318098     0.11700
H2676       H  0.61697890  0.66259587  0.67782921     0.13600
H2677       H  0.65255519  0.70336230  0.65449330     0.10200
H2678       H  0.67591415  0.75721229  0.64038735     0.12300
H2679       H  0.60574693  0.77142821  0.66896606     0.08900
H2680       H  0.58257255  0.71792235  0.68349744     0.11600
C2681       C  0.93674617  0.96187290  0.71320594    -0.03000
C2682       C  0.91207206  0.93166820  0.71987554    -0.05600
C2683       C  0.88085376  0.91752174  0.71275085    -0.20700
C2684       C  0.87401610  0.93232152  0.69808634     0.25100
C2685       C  0.89911416  0.96130624  0.69032784    -0.18200
C2686       C  0.93032421  0.97614877  0.69796246    -0.08200
C2687       C  0.84020652  0.91765750  0.69177540    -0.18500
C2688       C  0.83193665  0.91164407  0.67362638    -0.23300
C2689       C  0.79780823  0.89401418  0.66741836     0.27100
C2690       C  0.78864422  0.87186154  0.65262043    -0.20000
C2691       C  0.75718626  0.85632921  0.64565845    -0.09700
C2692       C  0.73465656  0.86377544  0.65278440    -0.10200
C2693       C  0.74326428  0.88471887  0.66819888    -0.03200
C2694       C  0.77464611  0.89973651  0.67551184    -0.18300
H2695       H  0.91668447  0.91958075  0.73117381     0.10800
H2696       H  0.86192893  0.89499486  0.71875049     0.10900
H2697       H  0.89423069  0.97312347  0.67898329     0.10500
H2698       H  0.94897543  0.99937128  0.69255959     0.11700
H2699       H  0.82145509  0.90864800  0.70243476     0.11700
H2700       H  0.85057876  0.91748521  0.66319690     0.13600
H2701       H  0.80595832  0.86678319  0.64633329     0.10200
H2702       H  0.75082310  0.83954757  0.63407198     0.12300
H2703       H  0.72630618  0.89066332  0.67398987     0.08900
H2704       H  0.78117742  0.91686374  0.68691458     0.11600
C2705       C  0.53315854  0.96488888  0.71104819    -0.03000
C2706       C  0.51512058  0.94225461  0.69703870    -0.05600
C2707       C  0.52778840  0.92572328  0.68759046    -0.20700
C2708       C  0.55865374  0.93140799  0.69200237     0.25100
C2709       C  0.57727157  0.95535490  0.70540480    -0.18200
C2710       C  0.56466626  0.97191748  0.71474119    -0.08200
C2711       C  0.57077591  0.91248570  0.68205326    -0.18500
C2712       C  0.59470720  0.90849728  0.68864811    -0.23300
C2713       C  0.60749506  0.89048684  0.67840753     0.27100
C2714       C  0.63936225  0.89838292  0.68187856    -0.20000
C2715       C  0.65298023  0.88342256  0.67178566    -0.09700
C2716       C  0.63493625  0.86014115  0.65809175    -0.10200
C2717       C  0.60244196  0.85069197  0.65542749    -0.03200
C2718       C  0.58883890  0.86573859  0.66542721    -0.18300
H2719       H  0.99086775  0.93661293  0.69383654     0.10800
H2720       H  0.51311446  0.90786628  0.67709446     0.10900
H2721       H  0.60167885  0.96171541  0.70865790     0.10500
H2722       H  0.57949752  0.99012176  0.72502842     0.11700
H2723       H  0.55921132  0.90127742  0.66885388     0.11700
H2724       H  0.60636772  0.91967290  0.70182156     0.13600
H2725       H  0.65414237  0.91700197  0.69199196     0.10200
H2726       H  0.67801297  0.89108965  0.67409579     0.12300
H2727       H  0.58782139  0.83221262  0.64521095     0.08900
H2728       H  0.56381451  0.85794440  0.66290416     0.11600
loop_ 
_geom_bond_atom_site_label_1 
_geom_bond_atom_site_label_2 
_geom_bond_distance 
_geom_bond_site_symmetry_2 
_ccdc_geom_bond_type 
C1            H2   1.111       .  S
C1            C7   1.525       .  S
C1            C6   1.526       .  S
C1            C5   1.527       .  S
C3            H4   1.111       .  S
C3            C9   1.549       .  S
C3            C8   1.548       .  S
C3           C10   1.545       .  S
C5            C8   1.378       .  D
C5          C563   1.487       .  S
C6            C9   1.376       .  D
C6          C598   1.481       .  S
C7           C10   1.370       .  D
C7          C539   1.468       .  S
C8          C646   1.487       .  S
C9          C670   1.487       .  S
C10         C622   1.485       .  S
C11          H12   1.111       .  S
C11          C17   1.544       .  S
C11          C16   1.543       .  S
C11          C15   1.541       .  S
C13          H14   1.111       .  S
C13          C19   1.525       .  S
C13          C18   1.530       .  S
C13          C20   1.530       .  S
C15          C18   1.374       .  D
C15         C515   1.477       .  S
C16          C19   1.371       .  D
C16         C478   1.484       .  S
C17          C20   1.376       .  D
C17         C502   1.480       .  S
C18         C406   1.485       .  S
C19         C419   1.471       .  S
C20         C443   1.484       .  S
C21          H22   1.111   1_565  S
C21          C26   1.536   1_565  S
C21         C709   1.538       .  S
C21        C2071   1.533   1_455  S
C23         H706   1.111       .  S
C23          C29   1.541   1_565  S
C23        C2074   1.542   1_455  S
C23         C712   1.539       .  S
H24         C705   1.111       .  S
C25        C2067   1.532       .  S
C25          C28   1.376       .  D
C25         C467   1.484       .  S
C26          C29   1.376       .  D
C26         C526   1.485       .  S
C27         C703   1.538       .  S
C27          C30   1.376       .  D
C27         C491   1.481       .  S
C28        C2069   1.542       .  S
C28         C635   1.488       .  S
C29         C611   1.485       .  S
C30         C705   1.539       .  S
C30         C659   1.490       .  S
C31          H32   1.111       .  S
C31          C37   1.539       .  S
C31          C36   1.543       .  S
C31          C35   1.542       .  S
C33          H34   1.111       .  S
C33          C39   1.531       .  S
C33          C38   1.525       .  S
C33          C40   1.531       .  S
C35          C38   1.371       .  D
C35         C323   1.481       .  S
C36          C39   1.376       .  D
C36         C382   1.487       .  S
C37          C40   1.374       .  D
C37         C358   1.477       .  S
C38         C275   1.471       .  S
C39         C262   1.479       .  S
C40         C310   1.485       .  S
C41          H42   1.111       .  S
C41          C47   1.545       .  S
C41          C46   1.543       .  S
C41          C45   1.540       .  S
C43          H44   1.112       .  S
C43          C49   1.526       .  S
C43          C48   1.530       .  S
C43          C50   1.528       .  S
C45          C48   1.372       .  D
C45         C227   1.477       .  S
C46          C49   1.373       .  D
C46         C179   1.484       .  S
C47          C50   1.375       .  D
C47         C214   1.483       .  S
C48         C118   1.477       .  S
C49         C131   1.475       .  S
C50         C166   1.483       .  S
C51          H52   1.111       .  S
C51        C2103   1.537   1_455  S
C51         C738   1.537       .  S
C51        C1419   1.535   1_455  S
C53          H54   1.111       .  S
C53         C741   1.536       .  S
C53        C1422   1.536   1_455  S
C53        C2106   1.534   1_455  S
C55        C1415   1.535       .  S
C55          C58   1.373       .  D
C55         C190   1.479       .  S
C56         C733   1.537   1_545  S
C56          C59   1.376       .  D
C56         C238   1.483       .  S
C57        C2097   1.537   1_545  S
C57          C60   1.377       .  D
C57         C203   1.483       .  S
C58        C1417   1.536       .  S
C58         C334   1.482       .  S
C59         C735   1.536   1_545  S
C59         C371   1.484       .  S
C60        C2099   1.535   1_545  S
C60         C347   1.482       .  S
O61          C77   1.278       .  A
O61       Zn1431   2.039   1_455  S
C62          O78   1.277       .  A
C62          O75   1.274       .  A
C62         C430   1.481       .  S
O63          C76   1.271       .  A
O63       Cd1434   2.035   1_545  S
O64          C82   1.275   1_556  A
O64         Cd73   2.078       .  S
O65          C79   1.275       .  A
O65        Cd751   2.067       .  S
O66          C77   1.275       .  A
O66         Cd69   2.062       .  S
Zn67         O80   2.047       .  S
Zn67       O1425   2.039       .  S
Zn67        O760   2.029   1_545  S
Zn67       O1436   1.955   1_545  S
O68          C79   1.275       .  A
O68       Cd1437   2.065   1_455  S
Cd69         O71   2.081       .  S
Cd69        O747   2.065   1_545  S
Cd69         O72   1.998   1_545  S
Cd70         O74   2.047   1_665  S
Cd70       O1427   2.035   1_565  S
Cd70       O2129   2.043       .  S
Cd70         O72   1.978   1_654  S
O71          C81   1.276   1_556  A
O72       Zn1431   1.955   1_465  S
O72       Cd2119   2.001   1_455  S
Cd73         O75   2.057       .  S
Cd73       O1432   2.065       .  S
Cd73       O2118   2.001       .  S
O74          C81   1.272       .  A
C76          O80   1.277   1_554  A
C76         C155   1.481       .  S
C77         C395   1.485       .  S
O78        Zn749   2.029       .  S
C79         C454   1.480       .  S
C81         C107   1.481       .  S
C82          O83   1.271       .  A
C82         C142   1.478       .  S
O83       Cd2116   2.043       .  S
O84         C100   1.276       .  A
O84       Zn1454   2.023       .  S
C85         O101   1.275       .  A
C85          O98   1.276       .  A
C85         C251   1.482       .  S
O86          C99   1.272       .  A
O86         Cd93   2.043       .  S
O87         C105   1.277       .  A
O87         Cd96   2.089       .  S
O88         C102   1.274       .  A
O88        Cd774   2.059   1_545  S
O89         C100   1.274       .  A
O89         Cd92   2.061       .  S
Zn90        O103   2.041       .  S
Zn90       O1448   2.023   1_455  S
Zn90        O783   2.020       .  S
Zn90         O95   1.949       .  S
O91         C102   1.276       .  A
O91       Cd1460   2.074       .  S
Cd92         O94   2.077       .  S
Cd92        O770   2.059       .  S
Cd92       O1459   1.997       .  S
Cd93       O1461   2.048   1_455  S
Cd93        O788   2.039       .  S
Cd93         O95   1.979       .  S
O94         C104   1.275       .  A
O95       Cd1456   1.997   1_455  S
O95        Cd778   2.006       .  S
Cd96         O98   2.070       .  S
Cd96       O1455   2.074       .  S
Cd96        O777   2.006   1_545  S
O97         C104   1.271       .  A
O97       Cd1457   2.048       .  S
C99         O103   1.277       .  A
C99         C587   1.481       .  S
C100        C286   1.481       .  S
O101       Zn772   2.018   1_545  S
C102        C299   1.480       .  S
C104        C574   1.480       .  S
C105        O106   1.271       .  A
C105        C550   1.479       .  S
O106       Cd775   2.039   1_545  S
C107        C108   1.407       .  A
C107        C112   1.405       .  A
C108        C109   1.394       .  A
C108        H803   1.083       .  S
C109        C110   1.400       .  A
C109        H122   1.084       .  S
C110        C113   1.483       .  S
C110        C111   1.409       .  A
C111        C112   1.399       .  A
C111        H123   1.082       .  S
C112        H124   1.083       .  S
C113        C114   1.344       .  D
C113        H125   1.085       .  S
C114        C115   1.484       .  S
C114        H126   1.086       .  S
C115        C116   1.403       .  A
C115        C120   1.410       .  A
C116        C117   1.394       .  A
C116        H127   1.083       .  S
C117        C118   1.401       .  A
C117        H128   1.083       .  S
C118        C119   1.402       .  A
C119        C120   1.399       .  A
C119        H129   1.083       .  S
C120        H130   1.081       .  S
H121        C790   1.083       .  S
C131        C132   1.402       .  A
C131        C136   1.398       .  A
C132        C133   1.397       .  A
C132        H145   1.083       .  S
C133        C134   1.403       .  A
C133        H146   1.083       .  S
C134        C137   1.479       .  S
C134        C135   1.407       .  A
C135        C136   1.394       .  A
C135        H147   1.082       .  S
C136        H148   1.080       .  S
C137        C138   1.346       .  D
C137        H149   1.085       .  S
C138        C139   1.481       .  S
C138        H150   1.086       .  S
C139        C140   1.404       .  A
C139        C144   1.405       .  A
C140        C141   1.398       .  A
C140        H151   1.083       .  S
C141        C142   1.404       .  A
C141       H1516   1.083       .  S
C142        C143   1.407       .  A
C143        C144   1.393       .  A
C143        H153   1.083       .  S
C144        H154   1.082       .  S
H152       C1505   1.083       .  S
C155        C156   1.404       .  A
C155        C160   1.407       .  A
C156        C157   1.401       .  A
C156        H169   1.083   1_554  S
C157        C158   1.406       .  A
C157        H170   1.083       .  S
C158        C161   1.486       .  S
C158        C159   1.405       .  A
C159        C160   1.393       .  A
C159        H171   1.081       .  S
C160        H172   1.083       .  S
C161        C162   1.349       .  D
C161        H173   1.085       .  S
C162        C163   1.485       .  S
C162        H174   1.085       .  S
C163        C164   1.405       .  A
C163        C168   1.407       .  A
C164        C165   1.399       .  A
C164        H175   1.083       .  S
C165        C166   1.404       .  A
C165        H176   1.083       .  S
C166        C167   1.400       .  A
C167        C168   1.394       .  A
C167        H177   1.079       .  S
C168        H178   1.081       .  S
C179        C180   1.402       .  A
C179        C184   1.403       .  A
C180        C181   1.402       .  A
C180        H193   1.083       .  S
C181        C182   1.406       .  A
C181        H194   1.083       .  S
C182        C185   1.490       .  S
C182        C183   1.408       .  A
C183        C184   1.397       .  A
C183        H195   1.081       .  S
C184        H196   1.083       .  S
C185        C186   1.348       .  D
C185        H197   1.086       .  S
C186        C187   1.486       .  S
C186        H198   1.085       .  S
C187        C188   1.404       .  A
C187        C192   1.409       .  A
C188        C189   1.397       .  A
C188       H1563   1.083       .  S
C189        C190   1.401       .  A
C189       H1564   1.083       .  S
C190        C191   1.402       .  A
C191        C192   1.402       .  A
C191        H201   1.083       .  S
C192        H202   1.082       .  S
H199       C1552   1.083       .  S
H200       C1553   1.083   1_455  S
C203        C204   1.401       .  A
C203        C208   1.403       .  A
C204        C205   1.400       .  A
C204        H217   1.083       .  S
C205        C206   1.406       .  A
C205        H218   1.083       .  S
C206        C209   1.487       .  S
C206        C207   1.408       .  A
C207        C208   1.397       .  A
C207        H219   1.081       .  S
C208        H220   1.083       .  S
C209        C210   1.350       .  D
C209        H221   1.084       .  S
C210        C211   1.489       .  S
C210        H222   1.085       .  S
C211        C212   1.407       .  A
C211        C216   1.408       .  A
C212        C213   1.400       .  A
C212        H223   1.083       .  S
C213        C214   1.400       .  A
C213        H224   1.082       .  S
C214        C215   1.404       .  A
C215        C216   1.396       .  A
C215        H225   1.083       .  S
C216        H226   1.081       .  S
C227        C228   1.401       .  A
C227        C232   1.400       .  A
C228        C229   1.398       .  A
C228        H241   1.084       .  S
C229        C230   1.404       .  A
C229        H242   1.083       .  S
C230        C233   1.487       .  S
C230        C231   1.410       .  A
C231        C232   1.400       .  A
C231        H243   1.082       .  S
C232        H244   1.083       .  S
C233        C234   1.348       .  D
C233        H245   1.084       .  S
C234        C235   1.490       .  S
C234        H246   1.086       .  S
C235        C236   1.406       .  A
C235        C240   1.409       .  A
C236        C237   1.399       .  A
C236        H247   1.083       .  S
C237        C238   1.400       .  A
C237        H930   1.083   1_545  S
C238        C239   1.404       .  A
C239        C240   1.399       .  A
C239        H249   1.083       .  S
C240        H250   1.081       .  S
H248        C919   1.083       .  S
C251        C252   1.406       .  A
C251        C256   1.405       .  A
C252        C253   1.398       .  A
C252        H265   1.083   1_545  S
C253        C254   1.404       .  A
C253        H266   1.083       .  S
C254        C257   1.488       .  S
C254        C255   1.409       .  A
C255        C256   1.397       .  A
C255        H267   1.080       .  S
C256        H268   1.083       .  S
C257        C258   1.347       .  D
C257        H269   1.085       .  S
C258        C259   1.485       .  S
C258        H270   1.084       .  S
C259        C260   1.403       .  A
C259        C264   1.410       .  A
C260        C261   1.394       .  A
C260        H271   1.083       .  S
C261        C262   1.401       .  A
C261        H272   1.083       .  S
C262        C263   1.402       .  A
C263        C264   1.400       .  A
C263        H273   1.083       .  S
C264        H274   1.081       .  S
C275        C276   1.400       .  A
C275        C280   1.399       .  A
C276        C277   1.395       .  A
C276        H289   1.083       .  S
C277        C278   1.403       .  A
C277        H290   1.083       .  S
C278        C281   1.483       .  S
C278        C279   1.409       .  A
C279        C280   1.398       .  A
C279        H291   1.082       .  S
C280        H292   1.083       .  S
C281        C282   1.347       .  D
C281        H293   1.084       .  S
C282        C283   1.486       .  S
C282        H294   1.085       .  S
C283        C284   1.403       .  A
C283        C288   1.409       .  A
C284        C285   1.397       .  A
C284        H295   1.083       .  S
C285        C286   1.406       .  A
C285        H296   1.083       .  S
C286        C287   1.405       .  A
C287        C288   1.398       .  A
C287       H1661   1.083       .  S
C288        H298   1.080       .  S
H297       C1651   1.083       .  S
C299        C300   1.406       .  A
C299        C304   1.406       .  A
C300        C301   1.398       .  A
C300        H313   1.083       .  S
C301        C302   1.403       .  A
C301        H314   1.083       .  S
C302        C305   1.483       .  S
C302        C303   1.406       .  A
C303        C304   1.395       .  A
C303        H315   1.082       .  S
C304        H316   1.083       .  S
C305        C306   1.346       .  D
C305        H317   1.085       .  S
C306        C307   1.483       .  S
C306        H318   1.086       .  S
C307        C308   1.403       .  A
C307        C312   1.407       .  A
C308        C309   1.396       .  A
C308        H319   1.083       .  S
C309        C310   1.404       .  A
C309        H320   1.082       .  S
C310        C311   1.403       .  A
C311        C312   1.396       .  A
C311        H321   1.081       .  S
C312        H322   1.081       .  S
C323        C324   1.401       .  A
C323        C328   1.404       .  A
C324        C325   1.399       .  A
C324        H337   1.083       .  S
C325        C326   1.405       .  A
C325        H338   1.083       .  S
C326        C329   1.484       .  S
C326        C327   1.407       .  A
C327        C328   1.397       .  A
C327        H339   1.082       .  S
C328        H340   1.082       .  S
C329        C330   1.349       .  D
C329        H341   1.084       .  S
C330        C331   1.487       .  S
C330        H342   1.085       .  S
C331        C332   1.406       .  A
C331        C336   1.408       .  A
C332        C333   1.399       .  A
C332       H1707   1.083       .  S
C333        C334   1.401       .  A
C333       H1708   1.083       .  S
C334        C335   1.403       .  A
C335        C336   1.396       .  A
C335        H345   1.083       .  S
C336        H346   1.081       .  S
H343       C1696   1.083       .  S
H344       C1697   1.083   1_455  S
C347        C348   1.401       .  A
C347        C352   1.403       .  A
C348        C349   1.399       .  A
C348       H1043   1.083   1_545  S
C349        C350   1.405       .  A
C349        H362   1.083       .  S
C350        C353   1.487       .  S
C350        C351   1.408       .  A
C351        C352   1.397       .  A
C351        H363   1.081       .  S
C352       H1728   1.083       .  S
C353        C354   1.347       .  D
C353        H365   1.086       .  S
C354        C355   1.484       .  S
C354        H366   1.085       .  S
C355        C356   1.403       .  A
C355        C360   1.409       .  A
C356        C357   1.396       .  A
C356        H367   1.083       .  S
C357        C358   1.401       .  A
C357        H368   1.084       .  S
C358        C359   1.400       .  A
C359        C360   1.401       .  A
C359        H369   1.083       .  S
C360        H370   1.082       .  S
H361       C1030   1.083       .  S
H364       C1716   1.083       .  S
C371        C372   1.402       .  A
C371        C376   1.403       .  A
C372        C373   1.401       .  A
C372        H385   1.083       .  S
C373        C374   1.406       .  A
C373        H386   1.083       .  S
C374        C377   1.491       .  S
C374        C375   1.408       .  A
C375        C376   1.397       .  A
C375        H387   1.081       .  S
C376        H388   1.083       .  S
C377        C378   1.351       .  D
C377        H389   1.084       .  S
C378        C379   1.490       .  S
C378        H390   1.085       .  S
C379        C380   1.405       .  A
C379        C384   1.408       .  A
C380        C381   1.398       .  A
C380        H391   1.083       .  S
C381        C382   1.401       .  A
C381        H392   1.083       .  S
C382        C383   1.406       .  A
C383        C384   1.400       .  A
C383        H393   1.083       .  S
C384        H394   1.081       .  S
C395        C396   1.407       .  A
C395        C400   1.406       .  A
C396        C397   1.397       .  A
C396        H409   1.083       .  S
C397        C398   1.403       .  A
C397        H410   1.083       .  S
C398        C401   1.489       .  S
C398        C399   1.409       .  A
C399        C400   1.401       .  A
C399        H411   1.081       .  S
C400        H412   1.083       .  S
C401        C402   1.349       .  D
C401        H413   1.084       .  S
C402        C403   1.491       .  S
C402        H414   1.085       .  S
C403        C404   1.405       .  A
C403        C408   1.409       .  A
C404        C405   1.398       .  A
C404        H415   1.083       .  S
C405        C406   1.402       .  A
C405        H416   1.082       .  S
C406        C407   1.403       .  A
C407        C408   1.398       .  A
C407        H417   1.083       .  S
C408        H418   1.080       .  S
C419        C420   1.399       .  A
C419        C424   1.399       .  A
C420        C421   1.394       .  A
C420        H433   1.082       .  S
C421        C422   1.403       .  A
C421        H434   1.083       .  S
C422        C425   1.481       .  S
C422        C423   1.409       .  A
C423        C424   1.398       .  A
C423        H435   1.082       .  S
C424        H436   1.083       .  S
C425        C426   1.346       .  D
C425        H437   1.082       .  S
C426        C427   1.488       .  S
C426        H438   1.086       .  S
C427        C428   1.403       .  A
C427        C432   1.410       .  A
C428        C429   1.396       .  A
C428        H439   1.084       .  S
C429        C430   1.406       .  A
C429        H440   1.083       .  S
C430        C431   1.404       .  A
C431        C432   1.397       .  A
C431        H441   1.083       .  S
C432        H442   1.079       .  S
C443        C444   1.404       .  A
C443        C448   1.402       .  A
C444        C445   1.398       .  A
C444        H457   1.082       .  S
C445        C446   1.404       .  A
C445        H458   1.083       .  S
C446        C449   1.484       .  S
C446        C447   1.406       .  A
C447        C448   1.392       .  A
C447        H459   1.081       .  S
C448        H460   1.080       .  S
C449        C450   1.347       .  D
C449        H461   1.084       .  S
C450        C451   1.483       .  S
C450        H462   1.085       .  S
C451        C452   1.403       .  A
C451        C456   1.407       .  A
C452        C453   1.396       .  A
C452        H463   1.084       .  S
C453        C454   1.405       .  A
C453        H464   1.083       .  S
C454        C455   1.406       .  A
C455        C456   1.397       .  A
C455        H465   1.083       .  S
C456        H466   1.081       .  S
C467        C468   1.403       .  A
C467        C472   1.402       .  A
C468        C469   1.396       .  A
C468       H1163   1.084       .  S
C469        C470   1.402       .  A
C469        H482   1.083       .  S
C470        C473   1.485       .  S
C470        C471   1.409       .  A
C471        C472   1.403       .  A
C471        H483   1.082       .  S
C472        H484   1.083       .  S
C473        C474   1.347       .  D
C473        H485   1.085       .  S
C474        C475   1.490       .  S
C474        H486   1.087       .  S
C475        C476   1.406       .  A
C475        C480   1.408       .  A
C476        C477   1.401       .  A
C476        H487   1.083       .  S
C477        C478   1.401       .  A
C477        H488   1.083       .  S
C478        C479   1.404       .  A
C479        C480   1.398       .  A
C479        H489   1.082       .  S
C480        H490   1.081       .  S
H481       C1150   1.084   1_545  S
C491        C492   1.402       .  A
C491        C496   1.401       .  A
C492        C493   1.396       .  A
C492        H505   1.084   1_455  S
C493        C494   1.403       .  A
C493        H506   1.083       .  S
C494        C497   1.489       .  S
C494        C495   1.411       .  A
C495        C496   1.403       .  A
C495        H507   1.082       .  S
C496        H508   1.083       .  S
C497        C498   1.348       .  D
C497        H509   1.085       .  S
C498        C499   1.490       .  S
C498        H510   1.085       .  S
C499        C500   1.404       .  A
C499        C504   1.411       .  A
C500        C501   1.398       .  A
C500        H511   1.083       .  S
C501        C502   1.402       .  A
C501        H512   1.083       .  S
C502        C503   1.401       .  A
C503        C504   1.402       .  A
C503        H513   1.083       .  S
C504        H514   1.081       .  S
C515        C516   1.401       .  A
C515        C520   1.401       .  A
C516        C517   1.397       .  A
C516        H529   1.083       .  S
C517        C518   1.403       .  A
C517        H530   1.083       .  S
C518        C521   1.485       .  S
C518        C519   1.409       .  A
C519        C520   1.402       .  A
C519        H531   1.082       .  S
C520        H532   1.083       .  S
C521        C522   1.348       .  D
C521        H533   1.086       .  S
C522        C523   1.489       .  S
C522        H534   1.086       .  S
C523        C524   1.406       .  A
C523        C528   1.408       .  A
C524        C525   1.401       .  A
C524        H535   1.083       .  S
C525        C526   1.402       .  A
C525       H1900   1.083   1_455  S
C526        C527   1.403       .  A
C527        C528   1.397       .  A
C527        H537   1.083       .  S
C528        H538   1.082       .  S
H536       C1889   1.083       .  S
C539        C540   1.398       .  A
C539        C544   1.399       .  A
C540        C541   1.393       .  A
C540        H553   1.083       .  S
C541        C542   1.402       .  A
C541        H554   1.083       .  S
C542        C545   1.479       .  S
C542        C543   1.410       .  A
C543        C544   1.398       .  A
C543        H555   1.082       .  S
C544        H556   1.083       .  S
C545        C546   1.342       .  D
C545        H557   1.086       .  S
C546        C547   1.479       .  S
C546        H558   1.086       .  S
C547        C548   1.399       .  A
C547        C552   1.408       .  A
C548        C549   1.393       .  A
C548        H559   1.084       .  S
C549        C550   1.407       .  A
C549        H560   1.083       .  S
C550        C551   1.404       .  A
C551        C552   1.399       .  A
C551        H561   1.083       .  S
C552        H562   1.082       .  S
C563        C564   1.405       .  A
C563        C568   1.402       .  A
C564        C565   1.398       .  A
C564        H577   1.083       .  S
C565        C566   1.404       .  A
C565        H578   1.083       .  S
C566        C569   1.483       .  S
C566        C567   1.407       .  A
C567        C568   1.394       .  A
C567        H579   1.082       .  S
C568        H580   1.081       .  S
C569        C570   1.347       .  D
C569        H581   1.086       .  S
C570        C571   1.482       .  S
C570        H582   1.085       .  S
C571        C572   1.404       .  A
C571        C576   1.406       .  A
C572        C573   1.398       .  A
C572        H583   1.083       .  S
C573        C574   1.405       .  A
C573        H584   1.083       .  S
C574        C575   1.407       .  A
C575        C576   1.395       .  A
C575        H585   1.083       .  S
C576        H586   1.082       .  S
C587        C588   1.405       .  A
C587        C592   1.407       .  A
C588        C589   1.400       .  A
C588        H601   1.083       .  S
C589        C590   1.405       .  A
C589        H602   1.083       .  S
C590        C593   1.485       .  S
C590        C591   1.405       .  A
C591        C592   1.394       .  A
C591        H603   1.081       .  S
C592        H604   1.083       .  S
C593        C594   1.349       .  D
C593        H605   1.085       .  S
C594        C595   1.484       .  S
C594        H606   1.085       .  S
C595        C596   1.405       .  A
C595        C600   1.407       .  A
C596        C597   1.398       .  A
C596        H607   1.083       .  S
C597        C598   1.403       .  A
C597        H608   1.083       .  S
C598        C599   1.402       .  A
C599        C600   1.395       .  A
C599        H609   1.084       .  S
C600        H610   1.082       .  S
C611        C612   1.402       .  A
C611        C616   1.402       .  A
C612        C613   1.397       .  A
C612        H625   1.083   1_455  S
C613        C614   1.404       .  A
C613        H626   1.083       .  S
C614        C617   1.494       .  S
C614        C615   1.412       .  A
C615        C616   1.405       .  A
C615        H627   1.081       .  S
C616        H628   1.083       .  S
C617        C618   1.350       .  D
C617        H629   1.085       .  S
C618        C619   1.494       .  S
C618        H630   1.085       .  S
C619        C620   1.405       .  A
C619        C624   1.412       .  A
C620        C621   1.399       .  A
C620        H631   1.083       .  S
C621        C622   1.403       .  A
C621        H632   1.083       .  S
C622        C623   1.401       .  A
C623        C624   1.404       .  A
C623        H633   1.083       .  S
C624        H634   1.081       .  S
C635        C636   1.406       .  A
C635        C640   1.404       .  A
C636        C637   1.393       .  A
C636        H649   1.082       .  S
C637        C638   1.398       .  A
C637        H650   1.083       .  S
C638        C641   1.478       .  S
C638        C639   1.408       .  A
C639        C640   1.404       .  A
C639        H651   1.083       .  S
C640        H652   1.083       .  S
C641        C642   1.340       .  D
C641        H653   1.087       .  S
C642        C643   1.481       .  S
C642        H654   1.087       .  S
C643        C644   1.400       .  A
C643        C648   1.408       .  A
C644        C645   1.395       .  A
C644        H655   1.083       .  S
C645        C646   1.407       .  A
C645        H656   1.083       .  S
C646        C647   1.402       .  A
C647        C648   1.402       .  A
C647        H657   1.081       .  S
C648        H658   1.083       .  S
C659        C660   1.402       .  A
C659        C664   1.405       .  A
C660        C661   1.403       .  A
C660       H2037   1.083   1_455  S
C661        C662   1.407       .  A
C661        H674   1.083       .  S
C662        C665   1.493       .  S
C662        C663   1.408       .  A
C663        C664   1.398       .  A
C663        H675   1.081       .  S
C664        H676   1.083       .  S
C665        C666   1.352       .  D
C665        H677   1.085       .  S
C666        C667   1.491       .  S
C666        H678   1.084       .  S
C667        C668   1.406       .  A
C667        C672   1.408       .  A
C668        C669   1.401       .  A
C668        H679   1.083       .  S
C669        C670   1.401       .  A
C669        H680   1.081       .  S
C670        C671   1.405       .  A
C671        C672   1.400       .  A
C671        H681   1.083       .  S
C672        H682   1.081       .  S
H673       C2024   1.083       .  S
C683        H684   1.111       .  S
C683        C689   1.525       .  S
C683        C688   1.526       .  S
C683        C687   1.527       .  S
C685        H686   1.111       .  S
C685        C691   1.549       .  S
C685        C690   1.549       .  S
C685        C692   1.545       .  S
C687        C690   1.378       .  D
C687       C1245   1.488       .  S
C688        C691   1.376       .  D
C688       C1280   1.480       .  S
C689        C692   1.370       .  D
C689       C1221   1.468       .  S
C690       C1328   1.487       .  S
C691       C1352   1.487       .  S
C692       C1304   1.486       .  S
C693        H694   1.111       .  S
C693        C699   1.544       .  S
C693        C698   1.544       .  S
C693        C697   1.542       .  S
C695        H696   1.111       .  S
C695        C701   1.525       .  S
C695        C700   1.530       .  S
C695        C702   1.529       .  S
C697        C700   1.374       .  D
C697       C1197   1.478       .  S
C698        C701   1.371       .  D
C698       C1160   1.484       .  S
C699        C702   1.375       .  D
C699       C1184   1.480       .  S
C700       C1088   1.485       .  S
C701       C1101   1.471       .  S
C702       C1125   1.484       .  S
C703        H704   1.111       .  S
C703        C708   1.535       .  S
C703       C1389   1.532   1_455  S
C705        C711   1.541       .  S
C705       C1392   1.542   1_455  S
C707       C1385   1.533       .  S
C707        C710   1.376       .  D
C707       C1149   1.484       .  S
C708        C711   1.376       .  D
C708       C1208   1.485       .  S
C709        C712   1.376       .  D
C709       C1173   1.481       .  S
C710       C1387   1.542       .  S
C710       C1317   1.488       .  S
C711       C1293   1.485       .  S
C712       C1341   1.490       .  S
C713        H714   1.111       .  S
C713        C719   1.539       .  S
C713        C718   1.543       .  S
C713        C717   1.542       .  S
C715        H716   1.111       .  S
C715        C721   1.532       .  S
C715        C720   1.525       .  S
C715        C722   1.531       .  S
C717        C720   1.371       .  D
C717       C1005   1.482       .  S
C718        C721   1.376       .  D
C718       C1064   1.487       .  S
C719        C722   1.374       .  D
C719       C1040   1.477       .  S
C720        C957   1.471       .  S
C721        C944   1.480       .  S
C722        C992   1.486       .  S
C723        H724   1.111       .  S
C723        C729   1.544       .  S
C723        C728   1.543       .  S
C723        C727   1.540       .  S
C725        H726   1.112       .  S
C725        C731   1.527       .  S
C725        C730   1.530       .  S
C725        C732   1.528       .  S
C727        C730   1.372       .  D
C727        C909   1.477       .  S
C728        C731   1.373       .  D
C728        C861   1.485       .  S
C729        C732   1.375       .  D
C729        C896   1.483       .  S
C730        C800   1.478       .  S
C731        C813   1.475       .  S
C732        C848   1.484       .  S
C733        H734   1.111       .  S
C733       C1421   1.537   1_465  S
C733       C2101   1.535   1_455  S
C735        H736   1.111       .  S
C735       C2104   1.535   1_455  S
C735       C1424   1.535   1_465  S
C737       C2097   1.535       .  S
C737        C740   1.373       .  D
C737        C872   1.479       .  S
C738        C741   1.376       .  D
C738        C920   1.482       .  S
C739       C1415   1.537       .  S
C739        C742   1.377       .  D
C739        C885   1.482       .  S
C740       C2099   1.535       .  S
C740       C1016   1.482       .  S
C741       C1053   1.484       .  S
C742       C1417   1.534       .  S
C742       C1029   1.482       .  S
O743        C759   1.278       .  A
O743      Zn2113   2.037   1_455  S
C744        O760   1.277       .  A
C744        O757   1.274       .  A
C744       C1112   1.481       .  S
O745        C758   1.271       .  A
O745      Cd2116   2.036       .  S
O746        C764   1.275   1_556  A
O746       Cd755   2.079       .  S
O747        C761   1.275       .  A
O748        C759   1.275       .  A
O748       Cd751   2.062       .  S
Zn749      O2107   2.037       .  S
Zn749       O762   2.048       .  S
Zn749      O2118   1.955       .  S
O750        C761   1.275       .  A
O750      Cd2119   2.065   1_455  S
Cd751       O753   2.083       .  S
Cd751       O754   1.998       .  S
Cd752      O2109   2.036       .  S
Cd752       O756   2.047   1_655  S
Cd752      O1447   2.043       .  S
Cd752       O754   1.978   1_654  S
O753        C763   1.276   1_556  A
O754      Zn2113   1.955   1_455  S
O754      Cd1437   2.001   1_455  S
Cd755      O2114   2.065       .  S
Cd755       O757   2.058       .  S
Cd755      O1436   2.001       .  S
O756        C763   1.272       .  A
C758        O762   1.277   1_554  A
C758        C837   1.481       .  S
C759       C1077   1.484       .  S
C761       C1136   1.479       .  S
C763        C789   1.481       .  S
C764        O765   1.271       .  A
C764        C824   1.479       .  S
O765      Cd1434   2.043       .  S
O766        C782   1.276       .  A
O766      Zn2136   2.021       .  S
C767        O783   1.275       .  A
C767        O780   1.276       .  A
C767        C933   1.482       .  S
O768        C781   1.272       .  A
O768       Cd775   2.042       .  S
O769        C787   1.277       .  A
O769       Cd778   2.088       .  S
O770        C784   1.274       .  A
O771        C782   1.274       .  A
O771       Cd774   2.062       .  S
Zn772      O2130   2.021   1_455  S
Zn772       O785   2.039       .  S
Zn772       O777   1.948       .  S
O773        C784   1.275       .  A
O773      Cd2142   2.073       .  S
Cd774       O776   2.078       .  S
Cd774      O2141   1.997       .  S
Cd775      O2143   2.048   1_455  S
Cd775       O777   1.978       .  S
O776        C786   1.275       .  A
O777      Cd2138   1.997   1_455  S
Cd778      O2137   2.073       .  S
Cd778       O780   2.070       .  S
O779        C786   1.271       .  A
O779      Cd2139   2.048       .  S
C781        O785   1.277       .  A
C781       C1269   1.481       .  S
C782        C968   1.481       .  S
C784        C981   1.480       .  S
C786       C1256   1.480       .  S
C787        O788   1.271       .  A
C787       C1232   1.478       .  S
C789        C790   1.407       .  A
C789        C794   1.405       .  A
C790        C791   1.394       .  A
C791        C792   1.400       .  A
C791        H804   1.084       .  S
C792        C795   1.483       .  S
C792        C793   1.409       .  A
C793        C794   1.400       .  A
C793        H805   1.082       .  S
C794        H806   1.083       .  S
C795        C796   1.344       .  D
C795        H807   1.085       .  S
C796        C797   1.485       .  S
C796        H808   1.086       .  S
C797        C798   1.403       .  A
C797        C802   1.410       .  A
C798        C799   1.394       .  A
C798        H809   1.083       .  S
C799        C800   1.401       .  A
C799        H810   1.083       .  S
C800        C801   1.402       .  A
C801        C802   1.399       .  A
C801        H811   1.083       .  S
C802        H812   1.081       .  S
C813        C814   1.402       .  A
C813        C818   1.398       .  A
C814        C815   1.397       .  A
C814        H827   1.083       .  S
C815        C816   1.403       .  A
C815        H828   1.083       .  S
C816        C819   1.480       .  S
C816        C817   1.407       .  A
C817        C818   1.394       .  A
C817        H829   1.082       .  S
C818        H830   1.080       .  S
C819        C820   1.346       .  D
C819        H831   1.085       .  S
C820        C821   1.481       .  S
C820        H832   1.086       .  S
C821        C822   1.404       .  A
C821        C826   1.405       .  A
C822        C823   1.398       .  A
C822        H833   1.083       .  S
C823        C824   1.404       .  A
C823       H2198   1.083       .  S
C824        C825   1.407       .  A
C825        C826   1.394       .  A
C825        H835   1.083       .  S
C826        H836   1.081       .  S
H834       C2187   1.083       .  S
C837        C838   1.404       .  A
C837        C842   1.407       .  A
C838        C839   1.401       .  A
C838        H851   1.083   1_554  S
C839        C840   1.406       .  A
C839        H852   1.083       .  S
C840        C843   1.486       .  S
C840        C841   1.405       .  A
C841        C842   1.393       .  A
C841        H853   1.081       .  S
C842        H854   1.083       .  S
C843        C844   1.349       .  D
C843        H855   1.085       .  S
C844        C845   1.485       .  S
C844        H856   1.085       .  S
C845        C846   1.405       .  A
C845        C850   1.407       .  A
C846        C847   1.399       .  A
C846        H857   1.083       .  S
C847        C848   1.404       .  A
C847        H858   1.083       .  S
C848        C849   1.400       .  A
C849        C850   1.394       .  A
C849        H859   1.079       .  S
C850        H860   1.081       .  S
C861        C862   1.402       .  A
C861        C866   1.404       .  A
C862        C863   1.402       .  A
C862        H875   1.083       .  S
C863        C864   1.406       .  A
C863        H876   1.083       .  S
C864        C867   1.490       .  S
C864        C865   1.408       .  A
C865        C866   1.397       .  A
C865        H877   1.081       .  S
C866        H878   1.083       .  S
C867        C868   1.348       .  D
C867        H879   1.086       .  S
C868        C869   1.486       .  S
C868        H880   1.085       .  S
C869        C870   1.404       .  A
C869        C874   1.409       .  A
C870        C871   1.397       .  A
C870       H2245   1.083       .  S
C871        C872   1.401       .  A
C871       H2246   1.083       .  S
C872        C873   1.402       .  A
C873        C874   1.402       .  A
C873        H883   1.083       .  S
C874        H884   1.082       .  S
H881       C2234   1.083       .  S
H882       C2235   1.083   1_455  S
C885        C886   1.401       .  A
C885        C890   1.403       .  A
C886        C887   1.400       .  A
C886        H899   1.083       .  S
C887        C888   1.406       .  A
C887        H900   1.083       .  S
C888        C891   1.487       .  S
C888        C889   1.408       .  A
C889        C890   1.397       .  A
C889        H901   1.081       .  S
C890        H902   1.083       .  S
C891        C892   1.350       .  D
C891        H903   1.084       .  S
C892        C893   1.489       .  S
C892        H904   1.085       .  S
C893        C894   1.406       .  A
C893        C898   1.408       .  A
C894        C895   1.400       .  A
C894        H905   1.083       .  S
C895        C896   1.400       .  A
C895        H906   1.082       .  S
C896        C897   1.404       .  A
C897        C898   1.397       .  A
C897        H907   1.083       .  S
C898        H908   1.081       .  S
C909        C910   1.402       .  A
C909        C914   1.400       .  A
C910        C911   1.398       .  A
C910        H923   1.084       .  S
C911        C912   1.404       .  A
C911        H924   1.083       .  S
C912        C915   1.487       .  S
C912        C913   1.410       .  A
C913        C914   1.400       .  A
C913        H925   1.082       .  S
C914        H926   1.083       .  S
C915        C916   1.348       .  D
C915        H927   1.084       .  S
C916        C917   1.490       .  S
C916        H928   1.086       .  S
C917        C918   1.406       .  A
C917        C922   1.409       .  A
C918        C919   1.398       .  A
C918        H929   1.083       .  S
C919        C920   1.400       .  A
C920        C921   1.404       .  A
C921        C922   1.399       .  A
C921        H931   1.083       .  S
C922        H932   1.081       .  S
C933        C934   1.406       .  A
C933        C938   1.405       .  A
C934        C935   1.398       .  A
C934        H947   1.083       .  S
C935        C936   1.404       .  A
C935        H948   1.083       .  S
C936        C939   1.488       .  S
C936        C937   1.409       .  A
C937        C938   1.397       .  A
C937        H949   1.080       .  S
C938        H950   1.083       .  S
C939        C940   1.347       .  D
C939        H951   1.085       .  S
C940        C941   1.485       .  S
C940        H952   1.084       .  S
C941        C942   1.403       .  A
C941        C946   1.410       .  A
C942        C943   1.394       .  A
C942        H953   1.083       .  S
C943        C944   1.401       .  A
C943        H954   1.083       .  S
C944        C945   1.402       .  A
C945        C946   1.400       .  A
C945        H955   1.083       .  S
C946        H956   1.081       .  S
C957        C958   1.400       .  A
C957        C962   1.399       .  A
C958        C959   1.395       .  A
C958        H971   1.082       .  S
C959        C960   1.403       .  A
C959        H972   1.083       .  S
C960        C963   1.482       .  S
C960        C961   1.409       .  A
C961        C962   1.398       .  A
C961        H973   1.082       .  S
C962        H974   1.083       .  S
C963        C964   1.346       .  D
C963        H975   1.084       .  S
C964        C965   1.486       .  S
C964        H976   1.085       .  S
C965        C966   1.403       .  A
C965        C970   1.409       .  A
C966        C967   1.396       .  A
C966        H977   1.083       .  S
C967        C968   1.406       .  A
C967        H978   1.083       .  S
C968        C969   1.405       .  A
C969        C970   1.398       .  A
C969       H2343   1.083       .  S
C970        H980   1.080       .  S
H979       C2333   1.083       .  S
C981        C982   1.406       .  A
C981        C986   1.406       .  A
C982        C983   1.398       .  A
C982        H995   1.083       .  S
C983        C984   1.403       .  A
C983        H996   1.083       .  S
C984        C987   1.482       .  S
C984        C985   1.406       .  A
C985        C986   1.395       .  A
C985        H997   1.082       .  S
C986        H998   1.083       .  S
C987        C988   1.346       .  D
C987        H999   1.085       .  S
C988        C989   1.483       .  S
C988       H1000   1.086       .  S
C989        C990   1.403       .  A
C989        C994   1.407       .  A
C990        C991   1.397       .  A
C990       H1001   1.083       .  S
C991        C992   1.404       .  A
C991       H1002   1.082       .  S
C992        C993   1.403       .  A
C993        C994   1.395       .  A
C993       H1003   1.081       .  S
C994       H1004   1.081       .  S
C1005      C1006   1.401       .  A
C1005      C1010   1.404       .  A
C1006      C1007   1.399       .  A
C1006      H1019   1.083       .  S
C1007      C1008   1.405       .  A
C1007      H1020   1.083       .  S
C1008      C1011   1.485       .  S
C1008      C1009   1.407       .  A
C1009      C1010   1.397       .  A
C1009      H1021   1.082       .  S
C1010      H1022   1.082       .  S
C1011      C1012   1.349       .  D
C1011      H1023   1.084       .  S
C1012      C1013   1.487       .  S
C1012      H1024   1.085       .  S
C1013      C1014   1.406       .  A
C1013      C1018   1.408       .  A
C1014      C1015   1.399       .  A
C1014      H2389   1.083       .  S
C1015      C1016   1.401       .  A
C1015      H2390   1.083       .  S
C1016      C1017   1.403       .  A
C1017      C1018   1.396       .  A
C1017      H1027   1.082       .  S
C1018      H1028   1.081       .  S
H1025      C2378   1.083       .  S
H1026      C2379   1.083   1_455  S
C1029      C1030   1.401       .  A
C1029      C1034   1.403       .  A
C1030      C1031   1.399       .  A
C1031      C1032   1.405       .  A
C1031      H1044   1.083       .  S
C1032      C1035   1.487       .  S
C1032      C1033   1.408       .  A
C1033      C1034   1.397       .  A
C1033      H1045   1.081       .  S
C1034      H2410   1.083       .  S
C1035      C1036   1.347       .  D
C1035      H1047   1.086       .  S
C1036      C1037   1.484       .  S
C1036      H1048   1.085       .  S
C1037      C1038   1.403       .  A
C1037      C1042   1.409       .  A
C1038      C1039   1.396       .  A
C1038      H1049   1.083       .  S
C1039      C1040   1.401       .  A
C1039      H1050   1.084       .  S
C1040      C1041   1.401       .  A
C1041      C1042   1.401       .  A
C1041      H1051   1.083       .  S
C1042      H1052   1.082       .  S
H1046      C2398   1.083       .  S
C1053      C1054   1.402       .  A
C1053      C1058   1.403       .  A
C1054      C1055   1.401       .  A
C1054      H1067   1.083       .  S
C1055      C1056   1.406       .  A
C1055      H1068   1.083       .  S
C1056      C1059   1.491       .  S
C1056      C1057   1.408       .  A
C1057      C1058   1.396       .  A
C1057      H1069   1.081       .  S
C1058      H1070   1.083       .  S
C1059      C1060   1.350       .  D
C1059      H1071   1.084       .  S
C1060      C1061   1.490       .  S
C1060      H1072   1.085       .  S
C1061      C1062   1.405       .  A
C1061      C1066   1.408       .  A
C1062      C1063   1.398       .  A
C1062      H1073   1.083       .  S
C1063      C1064   1.401       .  A
C1063      H1074   1.083       .  S
C1064      C1065   1.406       .  A
C1065      C1066   1.400       .  A
C1065      H1075   1.083       .  S
C1066      H1076   1.081       .  S
C1077      C1078   1.407       .  A
C1077      C1082   1.406       .  A
C1078      C1079   1.397       .  A
C1078      H1091   1.083       .  S
C1079      C1080   1.403       .  A
C1079      H1092   1.083       .  S
C1080      C1083   1.489       .  S
C1080      C1081   1.409       .  A
C1081      C1082   1.401       .  A
C1081      H1093   1.081       .  S
C1082      H1094   1.083       .  S
C1083      C1084   1.348       .  D
C1083      H1095   1.084       .  S
C1084      C1085   1.491       .  S
C1084      H1096   1.085       .  S
C1085      C1086   1.405       .  A
C1085      C1090   1.409       .  A
C1086      C1087   1.398       .  A
C1086      H1097   1.083       .  S
C1087      C1088   1.403       .  A
C1087      H1098   1.082       .  S
C1088      C1089   1.403       .  A
C1089      C1090   1.398       .  A
C1089      H1099   1.083       .  S
C1090      H1100   1.080       .  S
C1101      C1102   1.399       .  A
C1101      C1106   1.399       .  A
C1102      C1103   1.394       .  A
C1102      H1115   1.082       .  S
C1103      C1104   1.403       .  A
C1103      H1116   1.083       .  S
C1104      C1107   1.481       .  S
C1104      C1105   1.409       .  A
C1105      C1106   1.398       .  A
C1105      H1117   1.082       .  S
C1106      H1118   1.083       .  S
C1107      C1108   1.346       .  D
C1107      H1119   1.082       .  S
C1108      C1109   1.488       .  S
C1108      H1120   1.086       .  S
C1109      C1110   1.403       .  A
C1109      C1114   1.410       .  A
C1110      C1111   1.396       .  A
C1110      H1121   1.084       .  S
C1111      C1112   1.406       .  A
C1111      H1122   1.083       .  S
C1112      C1113   1.404       .  A
C1113      C1114   1.398       .  A
C1113      H1123   1.083       .  S
C1114      H1124   1.079       .  S
C1125      C1126   1.404       .  A
C1125      C1130   1.402       .  A
C1126      C1127   1.398       .  A
C1126      H1139   1.082       .  S
C1127      C1128   1.404       .  A
C1127      H1140   1.083       .  S
C1128      C1131   1.484       .  S
C1128      C1129   1.406       .  A
C1129      C1130   1.392       .  A
C1129      H1141   1.081       .  S
C1130      H1142   1.080       .  S
C1131      C1132   1.347       .  D
C1131      H1143   1.084       .  S
C1132      C1133   1.483       .  S
C1132      H1144   1.084       .  S
C1133      C1134   1.403       .  A
C1133      C1138   1.407       .  A
C1134      C1135   1.396       .  A
C1134      H1145   1.084       .  S
C1135      C1136   1.405       .  A
C1135      H1146   1.083       .  S
C1136      C1137   1.405       .  A
C1137      C1138   1.396       .  A
C1137      H1147   1.083       .  S
C1138      H1148   1.081       .  S
C1149      C1150   1.403       .  A
C1149      C1154   1.402       .  A
C1150      C1151   1.396       .  A
C1151      C1152   1.402       .  A
C1151      H1164   1.083       .  S
C1152      C1155   1.485       .  S
C1152      C1153   1.409       .  A
C1153      C1154   1.404       .  A
C1153      H1165   1.082       .  S
C1154      H1166   1.083       .  S
C1155      C1156   1.348       .  D
C1155      H1167   1.085       .  S
C1156      C1157   1.490       .  S
C1156      H1168   1.087       .  S
C1157      C1158   1.406       .  A
C1157      C1162   1.408       .  A
C1158      C1159   1.401       .  A
C1158      H1169   1.083       .  S
C1159      C1160   1.401       .  A
C1159      H1170   1.083       .  S
C1160      C1161   1.404       .  A
C1161      C1162   1.398       .  A
C1161      H1171   1.082       .  S
C1162      H1172   1.081       .  S
C1173      C1174   1.402       .  A
C1173      C1178   1.401       .  A
C1174      C1175   1.396       .  A
C1174      H1187   1.084   1_455  S
C1175      C1176   1.403       .  A
C1175      H1188   1.083       .  S
C1176      C1179   1.489       .  S
C1176      C1177   1.411       .  A
C1177      C1178   1.403       .  A
C1177      H1189   1.081       .  S
C1178      H1190   1.083   1_565  S
C1179      C1180   1.348       .  D
C1179      H1191   1.085       .  S
C1180      C1181   1.490       .  S
C1180      H1192   1.085       .  S
C1181      C1182   1.404       .  A
C1181      C1186   1.411       .  A
C1182      C1183   1.398       .  A
C1182      H1193   1.083       .  S
C1183      C1184   1.402       .  A
C1183      H1194   1.083       .  S
C1184      C1185   1.401       .  A
C1185      C1186   1.402       .  A
C1185      H1195   1.083       .  S
C1186      H1196   1.081       .  S
C1197      C1198   1.401       .  A
C1197      C1202   1.401       .  A
C1198      C1199   1.397       .  A
C1198      H1211   1.083       .  S
C1199      C1200   1.403       .  A
C1199      H1212   1.083       .  S
C1200      C1203   1.485       .  S
C1200      C1201   1.409       .  A
C1201      C1202   1.402       .  A
C1201      H1213   1.082       .  S
C1202      H1214   1.083       .  S
C1203      C1204   1.347       .  D
C1203      H1215   1.086       .  S
C1204      C1205   1.488       .  S
C1204      H1216   1.086       .  S
C1205      C1206   1.406       .  A
C1205      C1210   1.408       .  A
C1206      C1207   1.401       .  A
C1206      H1217   1.083       .  S
C1207      C1208   1.402       .  A
C1207      H2582   1.083   1_455  S
C1208      C1209   1.403       .  A
C1209      C1210   1.397       .  A
C1209      H1219   1.083       .  S
C1210      H1220   1.082       .  S
H1218      C2571   1.083       .  S
C1221      C1222   1.398       .  A
C1221      C1226   1.399       .  A
C1222      C1223   1.393       .  A
C1222      H1235   1.083       .  S
C1223      C1224   1.402       .  A
C1223      H1236   1.083       .  S
C1224      C1227   1.479       .  S
C1224      C1225   1.410       .  A
C1225      C1226   1.398       .  A
C1225      H1237   1.082       .  S
C1226      H1238   1.083       .  S
C1227      C1228   1.342       .  D
C1227      H1239   1.086       .  S
C1228      C1229   1.479       .  S
C1228      H1240   1.086       .  S
C1229      C1230   1.399       .  A
C1229      C1234   1.408       .  A
C1230      C1231   1.393       .  A
C1230      H1241   1.084       .  S
C1231      C1232   1.407       .  A
C1231      H1242   1.083       .  S
C1232      C1233   1.404       .  A
C1233      C1234   1.399       .  A
C1233      H1243   1.083       .  S
C1234      H1244   1.082       .  S
C1245      C1246   1.405       .  A
C1245      C1250   1.402       .  A
C1246      C1247   1.399       .  A
C1246      H1259   1.083       .  S
C1247      C1248   1.404       .  A
C1247      H1260   1.083       .  S
C1248      C1251   1.484       .  S
C1248      C1249   1.406       .  A
C1249      C1250   1.395       .  A
C1249      H1261   1.082       .  S
C1250      H1262   1.080       .  S
C1251      C1252   1.347       .  D
C1251      H1263   1.086       .  S
C1252      C1253   1.483       .  S
C1252      H1264   1.086       .  S
C1253      C1254   1.404       .  A
C1253      C1258   1.406       .  A
C1254      C1255   1.398       .  A
C1254      H1265   1.083       .  S
C1255      C1256   1.405       .  A
C1255      H1266   1.083       .  S
C1256      C1257   1.407       .  A
C1257      C1258   1.395       .  A
C1257      H1267   1.083       .  S
C1258      H1268   1.082       .  S
C1269      C1270   1.405       .  A
C1269      C1274   1.407       .  A
C1270      C1271   1.400       .  A
C1270      H1283   1.083       .  S
C1271      C1272   1.405       .  A
C1271      H1284   1.083       .  S
C1272      C1275   1.485       .  S
C1272      C1273   1.405       .  A
C1273      C1274   1.394       .  A
C1273      H1285   1.081       .  S
C1274      H1286   1.083       .  S
C1275      C1276   1.349       .  D
C1275      H1287   1.085       .  S
C1276      C1277   1.484       .  S
C1276      H1288   1.085       .  S
C1277      C1278   1.405       .  A
C1277      C1282   1.407       .  A
C1278      C1279   1.398       .  A
C1278      H1289   1.083       .  S
C1279      C1280   1.403       .  A
C1279      H1290   1.083       .  S
C1280      C1281   1.402       .  A
C1281      C1282   1.395       .  A
C1281      H1291   1.084       .  S
C1282      H1292   1.082       .  S
C1293      C1294   1.402       .  A
C1293      C1298   1.402       .  A
C1294      C1295   1.397       .  A
C1294      H1307   1.083   1_455  S
C1295      C1296   1.404       .  A
C1295      H1308   1.083       .  S
C1296      C1299   1.494       .  S
C1296      C1297   1.412       .  A
C1297      C1298   1.405       .  A
C1297      H1309   1.081       .  S
C1298      H1310   1.083       .  S
C1299      C1300   1.350       .  D
C1299      H1311   1.085       .  S
C1300      C1301   1.495       .  S
C1300      H1312   1.085       .  S
C1301      C1302   1.405       .  A
C1301      C1306   1.412       .  A
C1302      C1303   1.399       .  A
C1302      H1313   1.083       .  S
C1303      C1304   1.403       .  A
C1303      H1314   1.083       .  S
C1304      C1305   1.402       .  A
C1305      C1306   1.404       .  A
C1305      H1315   1.083       .  S
C1306      H1316   1.081       .  S
C1317      C1318   1.406       .  A
C1317      C1322   1.404       .  A
C1318      C1319   1.393       .  A
C1318      H1331   1.082       .  S
C1319      C1320   1.398       .  A
C1319      H1332   1.083       .  S
C1320      C1323   1.478       .  S
C1320      C1321   1.407       .  A
C1321      C1322   1.404       .  A
C1321      H1333   1.083       .  S
C1322      H1334   1.083       .  S
C1323      C1324   1.340       .  D
C1323      H1335   1.087       .  S
C1324      C1325   1.482       .  S
C1324      H1336   1.087       .  S
C1325      C1326   1.400       .  A
C1325      C1330   1.408       .  A
C1326      C1327   1.395       .  A
C1326      H1337   1.083       .  S
C1327      C1328   1.406       .  A
C1327      H1338   1.083       .  S
C1328      C1329   1.402       .  A
C1329      C1330   1.402       .  A
C1329      H1339   1.081       .  S
C1330      H1340   1.083       .  S
C1341      C1342   1.402       .  A
C1341      C1346   1.405       .  A
C1342      C1343   1.403       .  A
C1342      H2719   1.083   1_455  S
C1343      C1344   1.407       .  A
C1343      H1356   1.083       .  S
C1344      C1347   1.494       .  S
C1344      C1345   1.408       .  A
C1345      C1346   1.398       .  A
C1345      H1357   1.081       .  S
C1346      H1358   1.083       .  S
C1347      C1348   1.352       .  D
C1347      H1359   1.085       .  S
C1348      C1349   1.491       .  S
C1348      H1360   1.084       .  S
C1349      C1350   1.406       .  A
C1349      C1354   1.408       .  A
C1350      C1351   1.401       .  A
C1350      H1361   1.083       .  S
C1351      C1352   1.401       .  A
C1351      H1362   1.081       .  S
C1352      C1353   1.405       .  A
C1353      C1354   1.400       .  A
C1353      H1363   1.083       .  S
C1354      H1364   1.081       .  S
H1355      C2706   1.083       .  S
C1365      H1366   1.111       .  S
C1365      C1371   1.525       .  S
C1365      C1370   1.526       .  S
C1365      C1369   1.527       .  S
C1367      H1368   1.111       .  S
C1367      C1373   1.549       .  S
C1367      C1372   1.548       .  S
C1367      C1374   1.545       .  S
C1369      C1372   1.378       .  D
C1369      C1927   1.487       .  S
C1370      C1373   1.376       .  D
C1370      C1962   1.481       .  S
C1371      C1374   1.370       .  D
C1371      C1903   1.468       .  S
C1372      C2010   1.487       .  S
C1373      C2034   1.487       .  S
C1374      C1986   1.485       .  S
C1375      H1376   1.111       .  S
C1375      C1381   1.544       .  S
C1375      C1380   1.543       .  S
C1375      C1379   1.541       .  S
C1377      H1378   1.111       .  S
C1377      C1383   1.525       .  S
C1377      C1382   1.530       .  S
C1377      C1384   1.530       .  S
C1379      C1382   1.374       .  D
C1379      C1879   1.477       .  S
C1380      C1383   1.371       .  D
C1380      C1842   1.484       .  S
C1381      C1384   1.376       .  D
C1381      C1866   1.480       .  S
C1382      C1770   1.485       .  S
C1383      C1783   1.471       .  S
C1384      C1807   1.484       .  S
C1385      H1386   1.111   1_565  S
C1385      C2073   1.538       .  S
C1385      C1390   1.536   1_565  S
C1387      H2070   1.111       .  S
C1387      C1393   1.541   1_565  S
C1387      C2076   1.539       .  S
H1388      C2069   1.111       .  S
C1389      C1392   1.376       .  D
C1389      C1831   1.484       .  S
C1390      C1393   1.376       .  D
C1390      C1890   1.485       .  S
C1391      C2067   1.538       .  S
C1391      C1394   1.376       .  D
C1391      C1855   1.481       .  S
C1392      C1999   1.488       .  S
C1393      C1975   1.485       .  S
C1394      C2069   1.539       .  S
C1394      C2023   1.490       .  S
C1395      H1396   1.111       .  S
C1395      C1401   1.539       .  S
C1395      C1400   1.543       .  S
C1395      C1399   1.542       .  S
C1397      H1398   1.111       .  S
C1397      C1403   1.531       .  S
C1397      C1402   1.525       .  S
C1397      C1404   1.531       .  S
C1399      C1402   1.371       .  D
C1399      C1687   1.481       .  S
C1400      C1403   1.376       .  D
C1400      C1746   1.487       .  S
C1401      C1404   1.374       .  D
C1401      C1722   1.477       .  S
C1402      C1639   1.471       .  S
C1403      C1626   1.479       .  S
C1404      C1674   1.485       .  S
C1405      H1406   1.111       .  S
C1405      C1411   1.545       .  S
C1405      C1410   1.543       .  S
C1405      C1409   1.540       .  S
C1407      H1408   1.112       .  S
C1407      C1413   1.526       .  S
C1407      C1412   1.530       .  S
C1407      C1414   1.528       .  S
C1409      C1412   1.372       .  D
C1409      C1591   1.477       .  S
C1410      C1413   1.373       .  D
C1410      C1543   1.484       .  S
C1411      C1414   1.375       .  D
C1411      C1578   1.483       .  S
C1412      C1482   1.477       .  S
C1413      C1495   1.475       .  S
C1414      C1530   1.483       .  S
C1415      H1416   1.111       .  S
C1415      C2102   1.537       .  S
C1417      H1418   1.111       .  S
C1417      C2105   1.536       .  S
C1419      C1422   1.373       .  D
C1419      C1554   1.479       .  S
C1420      C2097   1.537   1_545  S
C1420      C1423   1.376       .  D
C1420      C1602   1.483       .  S
C1421      C1424   1.377       .  D
C1421      C1567   1.483       .  S
C1422      C1698   1.482       .  S
C1423      C2099   1.536   1_545  S
C1423      C1735   1.484       .  S
C1424      C1711   1.482       .  S
O1425      C1441   1.278       .  A
C1426      O1442   1.277       .  A
C1426      O1439   1.274       .  A
C1426      C1794   1.481       .  S
O1427      C1440   1.271       .  A
O1428      C1446   1.275   1_556  A
O1428     Cd1437   2.078       .  S
O1429      C1443   1.275       .  A
O1429     Cd2115   2.067       .  S
O1430      C1441   1.275       .  A
O1430     Cd1433   2.062       .  S
Zn1431     O2124   2.029   1_545  S
Zn1431     O1444   2.047       .  S
O1432      C1443   1.275       .  A
Cd1433     O2111   2.065   1_545  S
Cd1433     O1435   2.081       .  S
Cd1433     O1436   1.998   1_545  S
Cd1434     O1438   2.047   1_565  S
Cd1434     O1436   1.978   1_554  S
O1435      C1445   1.276   1_556  A
Cd1437     O1439   2.057       .  S
O1438      C1445   1.272       .  A
C1440      O1444   1.277   1_554  A
C1440      C1519   1.481       .  S
C1441      C1759   1.485       .  S
O1442     Zn2113   2.029       .  S
C1443      C1818   1.480       .  S
C1445      C1471   1.481       .  S
C1446      O1447   1.271       .  A
C1446      C1506   1.478       .  S
O1448      C1464   1.276       .  A
C1449      O1465   1.275       .  A
C1449      O1462   1.276       .  A
C1449      C1615   1.482       .  S
O1450      C1463   1.272       .  A
O1450     Cd1457   2.043       .  S
O1451      C1469   1.277       .  A
O1451     Cd1460   2.089       .  S
O1452      C1466   1.274       .  A
O1452     Cd2138   2.059   1_545  S
O1453      C1464   1.274       .  A
O1453     Cd1456   2.061       .  S
Zn1454     O2147   2.020       .  S
Zn1454     O1467   2.041       .  S
Zn1454     O1459   1.949       .  S
O1455      C1466   1.276   1_455  A
Cd1456     O2134   2.059       .  S
Cd1456     O1458   2.077       .  S
Cd1457     O2152   2.039       .  S
Cd1457     O1459   1.979       .  S
O1458      C1468   1.275       .  A
O1459     Cd2142   2.006       .  S
Cd1460     O1462   2.070       .  S
Cd1460     O2141   2.006   1_545  S
O1461      C1468   1.271       .  A
C1463      O1467   1.277       .  A
C1463      C1951   1.481       .  S
C1464      C1650   1.481       .  S
O1465     Zn2136   2.018   1_545  S
C1466      C1663   1.480       .  S
C1468      C1938   1.480       .  S
C1469      O1470   1.271       .  A
C1469      C1914   1.479       .  S
O1470     Cd2139   2.039   1_545  S
C1471      C1472   1.407       .  A
C1471      C1476   1.405       .  A
C1472      C1473   1.394       .  A
C1472      H2167   1.083       .  S
C1473      C1474   1.400       .  A
C1473      H1486   1.084       .  S
C1474      C1477   1.483       .  S
C1474      C1475   1.409       .  A
C1475      C1476   1.399       .  A
C1475      H1487   1.082       .  S
C1476      H1488   1.083       .  S
C1477      C1478   1.344       .  D
C1477      H1489   1.085       .  S
C1478      C1479   1.484       .  S
C1478      H1490   1.086       .  S
C1479      C1480   1.403       .  A
C1479      C1484   1.410       .  A
C1480      C1481   1.394       .  A
C1480      H1491   1.083       .  S
C1481      C1482   1.401       .  A
C1481      H1492   1.083       .  S
C1482      C1483   1.402       .  A
C1483      C1484   1.399       .  A
C1483      H1493   1.083       .  S
C1484      H1494   1.081       .  S
H1485      C2154   1.083       .  S
C1495      C1496   1.402       .  A
C1495      C1500   1.398       .  A
C1496      C1497   1.397       .  A
C1496      H1509   1.083       .  S
C1497      C1498   1.403       .  A
C1497      H1510   1.083       .  S
C1498      C1501   1.479       .  S
C1498      C1499   1.407       .  A
C1499      C1500   1.394       .  A
C1499      H1511   1.082       .  S
C1500      H1512   1.080       .  S
C1501      C1502   1.346       .  D
C1501      H1513   1.085       .  S
C1502      C1503   1.481       .  S
C1502      H1514   1.086       .  S
C1503      C1504   1.404       .  A
C1503      C1508   1.405       .  A
C1504      C1505   1.398       .  A
C1504      H1515   1.083       .  S
C1505      C1506   1.404       .  A
C1506      C1507   1.407       .  A
C1507      C1508   1.393       .  A
C1507      H1517   1.083       .  S
C1508      H1518   1.082       .  S
C1519      C1520   1.404       .  A
C1519      C1524   1.407       .  A
C1520      C1521   1.401       .  A
C1520      H1533   1.083   1_554  S
C1521      C1522   1.406       .  A
C1521      H1534   1.083       .  S
C1522      C1525   1.486       .  S
C1522      C1523   1.405       .  A
C1523      C1524   1.393       .  A
C1523      H1535   1.081       .  S
C1524      H1536   1.083       .  S
C1525      C1526   1.349       .  D
C1525      H1537   1.085       .  S
C1526      C1527   1.485       .  S
C1526      H1538   1.085       .  S
C1527      C1528   1.405       .  A
C1527      C1532   1.407       .  A
C1528      C1529   1.399       .  A
C1528      H1539   1.083       .  S
C1529      C1530   1.404       .  A
C1529      H1540   1.083       .  S
C1530      C1531   1.400       .  A
C1531      C1532   1.394       .  A
C1531      H1541   1.079       .  S
C1532      H1542   1.081       .  S
C1543      C1544   1.402       .  A
C1543      C1548   1.403       .  A
C1544      C1545   1.402       .  A
C1544      H1557   1.083       .  S
C1545      C1546   1.406       .  A
C1545      H1558   1.083       .  S
C1546      C1549   1.490       .  S
C1546      C1547   1.408       .  A
C1547      C1548   1.397       .  A
C1547      H1559   1.081       .  S
C1548      H1560   1.083       .  S
C1549      C1550   1.348       .  D
C1549      H1561   1.086       .  S
C1550      C1551   1.486       .  S
C1550      H1562   1.085       .  S
C1551      C1552   1.404       .  A
C1551      C1556   1.409       .  A
C1552      C1553   1.397       .  A
C1553      C1554   1.401       .  A
C1554      C1555   1.402       .  A
C1555      C1556   1.402       .  A
C1555      H1565   1.083       .  S
C1556      H1566   1.082       .  S
C1567      C1568   1.401       .  A
C1567      C1572   1.403       .  A
C1568      C1569   1.400       .  A
C1568      H1581   1.083   1_655  S
C1569      C1570   1.406       .  A
C1569      H1582   1.083       .  S
C1570      C1573   1.487       .  S
C1570      C1571   1.408       .  A
C1571      C1572   1.397       .  A
C1571      H1583   1.081       .  S
C1572      H1584   1.083       .  S
C1573      C1574   1.350       .  D
C1573      H1585   1.084       .  S
C1574      C1575   1.489       .  S
C1574      H1586   1.085       .  S
C1575      C1576   1.407       .  A
C1575      C1580   1.408       .  A
C1576      C1577   1.400       .  A
C1576      H1587   1.083       .  S
C1577      C1578   1.400       .  A
C1577      H1588   1.082       .  S
C1578      C1579   1.404       .  A
C1579      C1580   1.396       .  A
C1579      H1589   1.083       .  S
C1580      H1590   1.081       .  S
C1591      C1592   1.401       .  A
C1591      C1596   1.400       .  A
C1592      C1593   1.398       .  A
C1592      H1605   1.084       .  S
C1593      C1594   1.404       .  A
C1593      H1606   1.083       .  S
C1594      C1597   1.487       .  S
C1594      C1595   1.410       .  A
C1595      C1596   1.400       .  A
C1595      H1607   1.082       .  S
C1596      H1608   1.083       .  S
C1597      C1598   1.348       .  D
C1597      H1609   1.084       .  S
C1598      C1599   1.490       .  S
C1598      H1610   1.086       .  S
C1599      C1600   1.406       .  A
C1599      C1604   1.409       .  A
C1600      C1601   1.399       .  A
C1600      H1611   1.083       .  S
C1601      C1602   1.400       .  A
C1601      H2294   1.083   1_545  S
C1602      C1603   1.404       .  A
C1603      C1604   1.399       .  A
C1603      H1613   1.083       .  S
C1604      H1614   1.081       .  S
H1612      C2283   1.083       .  S
C1615      C1616   1.406       .  A
C1615      C1620   1.405       .  A
C1616      C1617   1.398       .  A
C1616      H1629   1.083   1_545  S
C1617      C1618   1.404       .  A
C1617      H1630   1.083       .  S
C1618      C1621   1.488       .  S
C1618      C1619   1.409       .  A
C1619      C1620   1.397       .  A
C1619      H1631   1.080       .  S
C1620      H1632   1.083       .  S
C1621      C1622   1.347       .  D
C1621      H1633   1.085       .  S
C1622      C1623   1.485       .  S
C1622      H1634   1.084       .  S
C1623      C1624   1.403       .  A
C1623      C1628   1.410       .  A
C1624      C1625   1.394       .  A
C1624      H1635   1.083       .  S
C1625      C1626   1.401       .  A
C1625      H1636   1.083       .  S
C1626      C1627   1.402       .  A
C1627      C1628   1.400       .  A
C1627      H1637   1.083       .  S
C1628      H1638   1.081       .  S
C1639      C1640   1.400       .  A
C1639      C1644   1.399       .  A
C1640      C1641   1.395       .  A
C1640      H1653   1.083       .  S
C1641      C1642   1.403       .  A
C1641      H1654   1.083       .  S
C1642      C1645   1.483       .  S
C1642      C1643   1.409       .  A
C1643      C1644   1.398       .  A
C1643      H1655   1.082       .  S
C1644      H1656   1.083       .  S
C1645      C1646   1.347       .  D
C1645      H1657   1.084       .  S
C1646      C1647   1.486       .  S
C1646      H1658   1.085       .  S
C1647      C1648   1.403       .  A
C1647      C1652   1.409       .  A
C1648      C1649   1.397       .  A
C1648      H1659   1.083       .  S
C1649      C1650   1.406       .  A
C1649      H1660   1.083       .  S
C1650      C1651   1.405       .  A
C1651      C1652   1.398       .  A
C1652      H1662   1.080       .  S
C1663      C1664   1.406       .  A
C1663      C1668   1.406       .  A
C1664      C1665   1.398       .  A
C1664      H1677   1.083   1_655  S
C1665      C1666   1.403       .  A
C1665      H1678   1.083       .  S
C1666      C1669   1.483       .  S
C1666      C1667   1.406       .  A
C1667      C1668   1.395       .  A
C1667      H1679   1.082       .  S
C1668      H1680   1.083       .  S
C1669      C1670   1.346       .  D
C1669      H1681   1.085       .  S
C1670      C1671   1.483       .  S
C1670      H1682   1.086       .  S
C1671      C1672   1.403       .  A
C1671      C1676   1.407       .  A
C1672      C1673   1.396       .  A
C1672      H1683   1.083       .  S
C1673      C1674   1.404       .  A
C1673      H1684   1.082       .  S
C1674      C1675   1.403       .  A
C1675      C1676   1.396       .  A
C1675      H1685   1.081       .  S
C1676      H1686   1.081       .  S
C1687      C1688   1.401       .  A
C1687      C1692   1.404       .  A
C1688      C1689   1.399       .  A
C1688      H1701   1.083       .  S
C1689      C1690   1.405       .  A
C1689      H1702   1.083       .  S
C1690      C1693   1.484       .  S
C1690      C1691   1.407       .  A
C1691      C1692   1.397       .  A
C1691      H1703   1.082       .  S
C1692      H1704   1.082       .  S
C1693      C1694   1.349       .  D
C1693      H1705   1.084       .  S
C1694      C1695   1.487       .  S
C1694      H1706   1.085       .  S
C1695      C1696   1.406       .  A
C1695      C1700   1.408       .  A
C1696      C1697   1.399       .  A
C1697      C1698   1.401       .  A
C1698      C1699   1.403       .  A
C1699      C1700   1.396       .  A
C1699      H1709   1.083       .  S
C1700      H1710   1.081       .  S
C1711      C1712   1.401       .  A
C1711      C1716   1.403       .  A
C1712      C1713   1.399       .  A
C1712      H2407   1.083   1_545  S
C1713      C1714   1.405       .  A
C1713      H1726   1.083       .  S
C1714      C1717   1.487       .  S
C1714      C1715   1.408       .  A
C1715      C1716   1.397       .  A
C1715      H1727   1.081       .  S
C1717      C1718   1.347       .  D
C1717      H1729   1.086       .  S
C1718      C1719   1.484       .  S
C1718      H1730   1.085       .  S
C1719      C1720   1.403       .  A
C1719      C1724   1.409       .  A
C1720      C1721   1.396       .  A
C1720      H1731   1.083       .  S
C1721      C1722   1.401       .  A
C1721      H1732   1.084       .  S
C1722      C1723   1.400       .  A
C1723      C1724   1.401       .  A
C1723      H1733   1.083       .  S
C1724      H1734   1.082       .  S
H1725      C2394   1.083       .  S
C1735      C1736   1.402       .  A
C1735      C1740   1.403       .  A
C1736      C1737   1.401       .  A
C1736      H1749   1.083       .  S
C1737      C1738   1.406       .  A
C1737      H1750   1.083       .  S
C1738      C1741   1.491       .  S
C1738      C1739   1.408       .  A
C1739      C1740   1.397       .  A
C1739      H1751   1.081       .  S
C1740      H1752   1.083       .  S
C1741      C1742   1.351       .  D
C1741      H1753   1.084       .  S
C1742      C1743   1.490       .  S
C1742      H1754   1.085       .  S
C1743      C1744   1.405       .  A
C1743      C1748   1.408       .  A
C1744      C1745   1.398       .  A
C1744      H1755   1.083       .  S
C1745      C1746   1.401       .  A
C1745      H1756   1.083       .  S
C1746      C1747   1.406       .  A
C1747      C1748   1.400       .  A
C1747      H1757   1.083       .  S
C1748      H1758   1.081       .  S
C1759      C1760   1.407       .  A
C1759      C1764   1.406       .  A
C1760      C1761   1.397       .  A
C1760      H1773   1.083       .  S
C1761      C1762   1.403       .  A
C1761      H1774   1.083       .  S
C1762      C1765   1.489       .  S
C1762      C1763   1.409       .  A
C1763      C1764   1.401       .  A
C1763      H1775   1.081       .  S
C1764      H1776   1.083       .  S
C1765      C1766   1.349       .  D
C1765      H1777   1.084       .  S
C1766      C1767   1.491       .  S
C1766      H1778   1.085       .  S
C1767      C1768   1.405       .  A
C1767      C1772   1.409       .  A
C1768      C1769   1.398       .  A
C1768      H1779   1.083       .  S
C1769      C1770   1.402       .  A
C1769      H1780   1.082       .  S
C1770      C1771   1.403       .  A
C1771      C1772   1.398       .  A
C1771      H1781   1.083       .  S
C1772      H1782   1.080       .  S
C1783      C1784   1.399       .  A
C1783      C1788   1.399       .  A
C1784      C1785   1.394       .  A
C1784      H1797   1.082       .  S
C1785      C1786   1.403       .  A
C1785      H1798   1.083       .  S
C1786      C1789   1.481       .  S
C1786      C1787   1.409       .  A
C1787      C1788   1.398       .  A
C1787      H1799   1.082       .  S
C1788      H1800   1.083       .  S
C1789      C1790   1.346       .  D
C1789      H1801   1.082       .  S
C1790      C1791   1.488       .  S
C1790      H1802   1.086       .  S
C1791      C1792   1.403       .  A
C1791      C1796   1.410       .  A
C1792      C1793   1.396       .  A
C1792      H1803   1.084       .  S
C1793      C1794   1.406       .  A
C1793      H1804   1.083       .  S
C1794      C1795   1.404       .  A
C1795      C1796   1.397       .  A
C1795      H1805   1.083       .  S
C1796      H1806   1.079       .  S
C1807      C1808   1.404       .  A
C1807      C1812   1.402       .  A
C1808      C1809   1.398       .  A
C1808      H1821   1.082       .  S
C1809      C1810   1.404       .  A
C1809      H1822   1.083       .  S
C1810      C1813   1.484       .  S
C1810      C1811   1.406       .  A
C1811      C1812   1.392       .  A
C1811      H1823   1.081       .  S
C1812      H1824   1.080       .  S
C1813      C1814   1.347       .  D
C1813      H1825   1.084       .  S
C1814      C1815   1.483       .  S
C1814      H1826   1.085       .  S
C1815      C1816   1.403       .  A
C1815      C1820   1.407       .  A
C1816      C1817   1.396       .  A
C1816      H1827   1.084       .  S
C1817      C1818   1.405       .  A
C1817      H1828   1.083       .  S
C1818      C1819   1.406       .  A
C1819      C1820   1.397       .  A
C1819      H1829   1.083       .  S
C1820      H1830   1.081       .  S
C1831      C1832   1.403       .  A
C1831      C1836   1.402       .  A
C1832      C1833   1.396       .  A
C1832      H2527   1.084       .  S
C1833      C1834   1.402       .  A
C1833      H1846   1.083       .  S
C1834      C1837   1.485       .  S
C1834      C1835   1.409       .  A
C1835      C1836   1.403       .  A
C1835      H1847   1.082       .  S
C1836      H1848   1.083       .  S
C1837      C1838   1.347       .  D
C1837      H1849   1.085       .  S
C1838      C1839   1.490       .  S
C1838      H1850   1.087       .  S
C1839      C1840   1.406       .  A
C1839      C1844   1.408       .  A
C1840      C1841   1.401       .  A
C1840      H1851   1.083       .  S
C1841      C1842   1.401       .  A
C1841      H1852   1.083       .  S
C1842      C1843   1.404       .  A
C1843      C1844   1.398       .  A
C1843      H1853   1.082       .  S
C1844      H1854   1.081       .  S
H1845      C2514   1.084   1_545  S
C1855      C1856   1.402       .  A
C1855      C1860   1.401       .  A
C1856      C1857   1.396       .  A
C1856      H1869   1.084       .  S
C1857      C1858   1.403       .  A
C1857      H1870   1.083       .  S
C1858      C1861   1.489       .  S
C1858      C1859   1.411       .  A
C1859      C1860   1.403       .  A
C1859      H1871   1.082       .  S
C1860      H1872   1.083       .  S
C1861      C1862   1.348       .  D
C1861      H1873   1.085       .  S
C1862      C1863   1.490       .  S
C1862      H1874   1.085       .  S
C1863      C1864   1.404       .  A
C1863      C1868   1.411       .  A
C1864      C1865   1.398       .  A
C1864      H1875   1.083       .  S
C1865      C1866   1.402       .  A
C1865      H1876   1.083       .  S
C1866      C1867   1.401       .  A
C1867      C1868   1.402       .  A
C1867      H1877   1.083       .  S
C1868      H1878   1.081       .  S
C1879      C1880   1.401       .  A
C1879      C1884   1.401       .  A
C1880      C1881   1.397       .  A
C1880      H1893   1.083       .  S
C1881      C1882   1.403       .  A
C1881      H1894   1.083       .  S
C1882      C1885   1.485       .  S
C1882      C1883   1.409       .  A
C1883      C1884   1.402       .  A
C1883      H1895   1.082       .  S
C1884      H1896   1.083       .  S
C1885      C1886   1.348       .  D
C1885      H1897   1.086       .  S
C1886      C1887   1.489       .  S
C1886      H1898   1.086       .  S
C1887      C1888   1.406       .  A
C1887      C1892   1.408       .  A
C1888      C1889   1.401       .  A
C1888      H1899   1.083       .  S
C1889      C1890   1.402       .  A
C1890      C1891   1.403       .  A
C1891      C1892   1.397       .  A
C1891      H1901   1.083       .  S
C1892      H1902   1.082       .  S
C1903      C1904   1.398       .  A
C1903      C1908   1.399       .  A
C1904      C1905   1.393       .  A
C1904      H1917   1.083       .  S
C1905      C1906   1.402       .  A
C1905      H1918   1.083       .  S
C1906      C1909   1.479       .  S
C1906      C1907   1.410       .  A
C1907      C1908   1.398       .  A
C1907      H1919   1.082       .  S
C1908      H1920   1.083       .  S
C1909      C1910   1.342       .  D
C1909      H1921   1.086       .  S
C1910      C1911   1.479       .  S
C1910      H1922   1.086       .  S
C1911      C1912   1.399       .  A
C1911      C1916   1.408       .  A
C1912      C1913   1.393       .  A
C1912      H1923   1.084       .  S
C1913      C1914   1.407       .  A
C1913      H1924   1.083       .  S
C1914      C1915   1.404       .  A
C1915      C1916   1.399       .  A
C1915      H1925   1.083       .  S
C1916      H1926   1.082       .  S
C1927      C1928   1.405       .  A
C1927      C1932   1.402       .  A
C1928      C1929   1.398       .  A
C1928      H1941   1.083       .  S
C1929      C1930   1.404       .  A
C1929      H1942   1.083       .  S
C1930      C1933   1.483       .  S
C1930      C1931   1.407       .  A
C1931      C1932   1.394       .  A
C1931      H1943   1.082       .  S
C1932      H1944   1.081       .  S
C1933      C1934   1.347       .  D
C1933      H1945   1.086       .  S
C1934      C1935   1.482       .  S
C1934      H1946   1.085       .  S
C1935      C1936   1.404       .  A
C1935      C1940   1.406       .  A
C1936      C1937   1.398       .  A
C1936      H1947   1.083       .  S
C1937      C1938   1.405       .  A
C1937      H1948   1.083       .  S
C1938      C1939   1.407       .  A
C1939      C1940   1.395       .  A
C1939      H1949   1.083       .  S
C1940      H1950   1.082       .  S
C1951      C1952   1.405       .  A
C1951      C1956   1.407       .  A
C1952      C1953   1.400       .  A
C1952      H1965   1.083       .  S
C1953      C1954   1.405       .  A
C1953      H1966   1.083       .  S
C1954      C1957   1.485       .  S
C1954      C1955   1.405       .  A
C1955      C1956   1.394       .  A
C1955      H1967   1.081       .  S
C1956      H1968   1.083       .  S
C1957      C1958   1.349       .  D
C1957      H1969   1.085       .  S
C1958      C1959   1.484       .  S
C1958      H1970   1.085       .  S
C1959      C1960   1.405       .  A
C1959      C1964   1.407       .  A
C1960      C1961   1.398       .  A
C1960      H1971   1.083       .  S
C1961      C1962   1.403       .  A
C1961      H1972   1.083       .  S
C1962      C1963   1.402       .  A
C1963      C1964   1.395       .  A
C1963      H1973   1.084       .  S
C1964      H1974   1.082       .  S
C1975      C1976   1.402       .  A
C1975      C1980   1.402       .  A
C1976      C1977   1.397       .  A
C1976      H1989   1.083       .  S
C1977      C1978   1.404       .  A
C1977      H1990   1.083       .  S
C1978      C1981   1.494       .  S
C1978      C1979   1.412       .  A
C1979      C1980   1.405       .  A
C1979      H1991   1.081       .  S
C1980      H1992   1.083       .  S
C1981      C1982   1.350       .  D
C1981      H1993   1.085       .  S
C1982      C1983   1.494       .  S
C1982      H1994   1.085       .  S
C1983      C1984   1.405       .  A
C1983      C1988   1.412       .  A
C1984      C1985   1.399       .  A
C1984      H1995   1.083       .  S
C1985      C1986   1.403       .  A
C1985      H1996   1.083       .  S
C1986      C1987   1.401       .  A
C1987      C1988   1.404       .  A
C1987      H1997   1.083       .  S
C1988      H1998   1.081       .  S
C1999      C2000   1.406       .  A
C1999      C2004   1.404       .  A
C2000      C2001   1.393       .  A
C2000      H2013   1.082       .  S
C2001      C2002   1.398       .  A
C2001      H2014   1.083       .  S
C2002      C2005   1.478       .  S
C2002      C2003   1.408       .  A
C2003      C2004   1.404       .  A
C2003      H2015   1.083       .  S
C2004      H2016   1.083       .  S
C2005      C2006   1.340       .  D
C2005      H2017   1.087       .  S
C2006      C2007   1.481       .  S
C2006      H2018   1.087       .  S
C2007      C2008   1.400       .  A
C2007      C2012   1.408       .  A
C2008      C2009   1.395       .  A
C2008      H2019   1.083       .  S
C2009      C2010   1.407       .  A
C2009      H2020   1.083       .  S
C2010      C2011   1.402       .  A
C2011      C2012   1.402       .  A
C2011      H2021   1.081       .  S
C2012      H2022   1.083       .  S
C2023      C2024   1.402       .  A
C2023      C2028   1.405       .  A
C2024      C2025   1.403       .  A
C2025      C2026   1.407       .  A
C2025      H2038   1.083       .  S
C2026      C2029   1.493       .  S
C2026      C2027   1.408       .  A
C2027      C2028   1.398       .  A
C2027      H2039   1.081       .  S
C2028      H2040   1.083       .  S
C2029      C2030   1.352       .  D
C2029      H2041   1.085       .  S
C2030      C2031   1.491       .  S
C2030      H2042   1.084       .  S
C2031      C2032   1.406       .  A
C2031      C2036   1.408       .  A
C2032      C2033   1.401       .  A
C2032      H2043   1.083       .  S
C2033      C2034   1.401       .  A
C2033      H2044   1.081       .  S
C2034      C2035   1.405       .  A
C2035      C2036   1.400       .  A
C2035      H2045   1.083       .  S
C2036      H2046   1.081       .  S
C2047      H2048   1.111       .  S
C2047      C2053   1.525       .  S
C2047      C2052   1.526       .  S
C2047      C2051   1.527       .  S
C2049      H2050   1.111       .  S
C2049      C2055   1.549       .  S
C2049      C2054   1.549       .  S
C2049      C2056   1.545       .  S
C2051      C2054   1.378       .  D
C2051      C2609   1.488       .  S
C2052      C2055   1.376       .  D
C2052      C2644   1.480       .  S
C2053      C2056   1.370       .  D
C2053      C2585   1.468       .  S
C2054      C2692   1.487       .  S
C2055      C2716   1.487       .  S
C2056      C2668   1.486       .  S
C2057      H2058   1.111       .  S
C2057      C2063   1.544       .  S
C2057      C2062   1.544       .  S
C2057      C2061   1.542       .  S
C2059      H2060   1.111       .  S
C2059      C2065   1.525       .  S
C2059      C2064   1.530       .  S
C2059      C2066   1.529       .  S
C2061      C2064   1.374       .  D
C2061      C2561   1.478       .  S
C2062      C2065   1.371       .  D
C2062      C2524   1.484       .  S
C2063      C2066   1.375       .  D
C2063      C2548   1.480       .  S
C2064      C2452   1.485       .  S
C2065      C2465   1.471       .  S
C2066      C2489   1.484       .  S
C2067      H2068   1.111       .  S
C2067      C2072   1.535       .  S
C2069      C2075   1.541       .  S
C2071      C2074   1.376       .  D
C2071      C2513   1.484       .  S
C2072      C2075   1.376       .  D
C2072      C2572   1.485       .  S
C2073      C2076   1.376       .  D
C2073      C2537   1.481       .  S
C2074      C2681   1.488       .  S
C2075      C2657   1.485       .  S
C2076      C2705   1.490       .  S
C2077      H2078   1.111       .  S
C2077      C2083   1.539       .  S
C2077      C2082   1.543       .  S
C2077      C2081   1.542       .  S
C2079      H2080   1.111       .  S
C2079      C2085   1.532       .  S
C2079      C2084   1.525       .  S
C2079      C2086   1.531       .  S
C2081      C2084   1.371       .  D
C2081      C2369   1.482       .  S
C2082      C2085   1.376       .  D
C2082      C2428   1.487       .  S
C2083      C2086   1.374       .  D
C2083      C2404   1.477       .  S
C2084      C2321   1.471       .  S
C2085      C2308   1.480       .  S
C2086      C2356   1.486       .  S
C2087      H2088   1.111       .  S
C2087      C2093   1.544       .  S
C2087      C2092   1.543       .  S
C2087      C2091   1.540       .  S
C2089      H2090   1.112       .  S
C2089      C2095   1.527       .  S
C2089      C2094   1.530       .  S
C2089      C2096   1.528       .  S
C2091      C2094   1.372       .  D
C2091      C2273   1.477       .  S
C2092      C2095   1.373       .  D
C2092      C2225   1.485       .  S
C2093      C2096   1.375       .  D
C2093      C2260   1.483       .  S
C2094      C2164   1.478       .  S
C2095      C2177   1.475       .  S
C2096      C2212   1.484       .  S
C2097      H2098   1.111       .  S
C2099      H2100   1.111       .  S
C2101      C2104   1.373       .  D
C2101      C2236   1.479       .  S
C2102      C2105   1.376       .  D
C2102      C2284   1.482       .  S
C2103      C2106   1.377       .  D
C2103      C2249   1.482       .  S
C2104      C2380   1.482       .  S
C2105      C2417   1.484       .  S
C2106      C2393   1.482       .  S
O2107      C2123   1.278       .  A
C2108      O2124   1.277       .  A
C2108      O2121   1.274       .  A
C2108      C2476   1.481       .  S
O2109      C2122   1.271       .  A
O2110      C2128   1.275   1_556  A
O2110     Cd2119   2.079       .  S
O2111      C2125   1.275       .  A
O2112      C2123   1.275       .  A
O2112     Cd2115   2.062       .  S
Zn2113     O2126   2.048       .  S
O2114      C2125   1.275       .  A
Cd2115     O2117   2.083       .  S
Cd2115     O2118   1.998       .  S
Cd2116     O2120   2.047       .  S
Cd2116     O2118   1.978   1_554  S
O2117      C2127   1.276   1_556  A
Cd2119     O2121   2.058       .  S
O2120      C2127   1.272       .  A
C2122      O2126   1.277   1_554  A
C2122      C2201   1.481       .  S
C2123      C2441   1.484       .  S
C2125      C2500   1.479       .  S
C2127      C2153   1.481       .  S
C2128      O2129   1.271       .  A
C2128      C2188   1.479       .  S
O2130      C2146   1.276       .  A
C2131      O2147   1.275       .  A
C2131      O2144   1.276       .  A
C2131      C2297   1.482       .  S
O2132      C2145   1.272       .  A
O2132     Cd2139   2.042       .  S
O2133      C2151   1.277       .  A
O2133     Cd2142   2.088       .  S
O2134      C2148   1.274       .  A
O2135      C2146   1.274       .  A
O2135     Cd2138   2.062       .  S
Zn2136     O2149   2.039       .  S
Zn2136     O2141   1.948       .  S
O2137      C2148   1.275   1_455  A
Cd2138     O2140   2.078       .  S
Cd2139     O2141   1.978       .  S
O2140      C2150   1.275       .  A
Cd2142     O2144   2.070       .  S
O2143      C2150   1.271       .  A
C2145      O2149   1.277       .  A
C2145      C2633   1.481       .  S
C2146      C2332   1.481       .  S
C2148      C2345   1.480       .  S
C2150      C2620   1.480       .  S
C2151      O2152   1.271       .  A
C2151      C2596   1.478       .  S
C2153      C2154   1.407       .  A
C2153      C2158   1.405       .  A
C2154      C2155   1.394       .  A
C2155      C2156   1.400       .  A
C2155      H2168   1.084       .  S
C2156      C2159   1.483       .  S
C2156      C2157   1.409       .  A
C2157      C2158   1.400       .  A
C2157      H2169   1.082       .  S
C2158      H2170   1.083       .  S
C2159      C2160   1.344       .  D
C2159      H2171   1.085       .  S
C2160      C2161   1.485       .  S
C2160      H2172   1.086       .  S
C2161      C2162   1.403       .  A
C2161      C2166   1.410       .  A
C2162      C2163   1.394       .  A
C2162      H2173   1.083       .  S
C2163      C2164   1.401       .  A
C2163      H2174   1.083       .  S
C2164      C2165   1.402       .  A
C2165      C2166   1.399       .  A
C2165      H2175   1.083       .  S
C2166      H2176   1.081       .  S
C2177      C2178   1.402       .  A
C2177      C2182   1.398       .  A
C2178      C2179   1.397       .  A
C2178      H2191   1.083       .  S
C2179      C2180   1.403       .  A
C2179      H2192   1.083       .  S
C2180      C2183   1.480       .  S
C2180      C2181   1.407       .  A
C2181      C2182   1.394       .  A
C2181      H2193   1.082       .  S
C2182      H2194   1.080       .  S
C2183      C2184   1.346       .  D
C2183      H2195   1.085       .  S
C2184      C2185   1.481       .  S
C2184      H2196   1.086       .  S
C2185      C2186   1.404       .  A
C2185      C2190   1.405       .  A
C2186      C2187   1.398       .  A
C2186      H2197   1.083       .  S
C2187      C2188   1.404       .  A
C2188      C2189   1.407       .  A
C2189      C2190   1.394       .  A
C2189      H2199   1.083       .  S
C2190      H2200   1.081       .  S
C2201      C2202   1.404       .  A
C2201      C2206   1.407       .  A
C2202      C2203   1.401       .  A
C2202      H2215   1.083   1_554  S
C2203      C2204   1.406       .  A
C2203      H2216   1.083       .  S
C2204      C2207   1.486       .  S
C2204      C2205   1.405       .  A
C2205      C2206   1.393       .  A
C2205      H2217   1.081       .  S
C2206      H2218   1.083       .  S
C2207      C2208   1.349       .  D
C2207      H2219   1.085       .  S
C2208      C2209   1.485       .  S
C2208      H2220   1.085       .  S
C2209      C2210   1.405       .  A
C2209      C2214   1.407       .  A
C2210      C2211   1.399       .  A
C2210      H2221   1.083       .  S
C2211      C2212   1.404       .  A
C2211      H2222   1.083       .  S
C2212      C2213   1.400       .  A
C2213      C2214   1.394       .  A
C2213      H2223   1.079       .  S
C2214      H2224   1.081       .  S
C2225      C2226   1.402       .  A
C2225      C2230   1.404       .  A
C2226      C2227   1.402       .  A
C2226      H2239   1.083       .  S
C2227      C2228   1.406       .  A
C2227      H2240   1.083       .  S
C2228      C2231   1.490       .  S
C2228      C2229   1.408       .  A
C2229      C2230   1.397       .  A
C2229      H2241   1.081       .  S
C2230      H2242   1.083       .  S
C2231      C2232   1.348       .  D
C2231      H2243   1.086       .  S
C2232      C2233   1.486       .  S
C2232      H2244   1.085       .  S
C2233      C2234   1.404       .  A
C2233      C2238   1.409       .  A
C2234      C2235   1.397       .  A
C2235      C2236   1.401       .  A
C2236      C2237   1.402       .  A
C2237      C2238   1.402       .  A
C2237      H2247   1.083       .  S
C2238      H2248   1.082       .  S
C2249      C2250   1.401       .  A
C2249      C2254   1.403       .  A
C2250      C2251   1.400       .  A
C2250      H2263   1.083   1_655  S
C2251      C2252   1.406       .  A
C2251      H2264   1.083       .  S
C2252      C2255   1.487       .  S
C2252      C2253   1.408       .  A
C2253      C2254   1.397       .  A
C2253      H2265   1.081       .  S
C2254      H2266   1.083       .  S
C2255      C2256   1.350       .  D
C2255      H2267   1.084       .  S
C2256      C2257   1.489       .  S
C2256      H2268   1.085       .  S
C2257      C2258   1.406       .  A
C2257      C2262   1.408       .  A
C2258      C2259   1.400       .  A
C2258      H2269   1.083       .  S
C2259      C2260   1.400       .  A
C2259      H2270   1.082       .  S
C2260      C2261   1.404       .  A
C2261      C2262   1.397       .  A
C2261      H2271   1.083       .  S
C2262      H2272   1.081       .  S
C2273      C2274   1.402       .  A
C2273      C2278   1.400       .  A
C2274      C2275   1.398       .  A
C2274      H2287   1.084       .  S
C2275      C2276   1.404       .  A
C2275      H2288   1.083       .  S
C2276      C2279   1.487       .  S
C2276      C2277   1.410       .  A
C2277      C2278   1.400       .  A
C2277      H2289   1.082       .  S
C2278      H2290   1.083       .  S
C2279      C2280   1.348       .  D
C2279      H2291   1.084       .  S
C2280      C2281   1.490       .  S
C2280      H2292   1.086       .  S
C2281      C2282   1.406       .  A
C2281      C2286   1.409       .  A
C2282      C2283   1.398       .  A
C2282      H2293   1.083       .  S
C2283      C2284   1.400       .  A
C2284      C2285   1.404       .  A
C2285      C2286   1.399       .  A
C2285      H2295   1.083       .  S
C2286      H2296   1.081       .  S
C2297      C2298   1.406       .  A
C2297      C2302   1.405       .  A
C2298      C2299   1.398       .  A
C2298      H2311   1.083       .  S
C2299      C2300   1.404       .  A
C2299      H2312   1.083       .  S
C2300      C2303   1.488       .  S
C2300      C2301   1.409       .  A
C2301      C2302   1.397       .  A
C2301      H2313   1.080       .  S
C2302      H2314   1.083       .  S
C2303      C2304   1.347       .  D
C2303      H2315   1.085       .  S
C2304      C2305   1.485       .  S
C2304      H2316   1.084       .  S
C2305      C2306   1.403       .  A
C2305      C2310   1.410       .  A
C2306      C2307   1.394       .  A
C2306      H2317   1.083       .  S
C2307      C2308   1.401       .  A
C2307      H2318   1.083       .  S
C2308      C2309   1.402       .  A
C2309      C2310   1.400       .  A
C2309      H2319   1.083       .  S
C2310      H2320   1.081       .  S
C2321      C2322   1.400       .  A
C2321      C2326   1.399       .  A
C2322      C2323   1.395       .  A
C2322      H2335   1.082       .  S
C2323      C2324   1.403       .  A
C2323      H2336   1.083       .  S
C2324      C2327   1.482       .  S
C2324      C2325   1.409       .  A
C2325      C2326   1.398       .  A
C2325      H2337   1.082       .  S
C2326      H2338   1.083       .  S
C2327      C2328   1.346       .  D
C2327      H2339   1.084       .  S
C2328      C2329   1.486       .  S
C2328      H2340   1.085       .  S
C2329      C2330   1.403       .  A
C2329      C2334   1.409       .  A
C2330      C2331   1.396       .  A
C2330      H2341   1.083       .  S
C2331      C2332   1.406       .  A
C2331      H2342   1.083       .  S
C2332      C2333   1.405       .  A
C2333      C2334   1.398       .  A
C2334      H2344   1.080       .  S
C2345      C2346   1.406       .  A
C2345      C2350   1.406       .  A
C2346      C2347   1.398       .  A
C2346      H2359   1.083   1_655  S
C2347      C2348   1.403       .  A
C2347      H2360   1.083       .  S
C2348      C2351   1.482       .  S
C2348      C2349   1.406       .  A
C2349      C2350   1.395       .  A
C2349      H2361   1.082       .  S
C2350      H2362   1.083       .  S
C2351      C2352   1.346       .  D
C2351      H2363   1.085       .  S
C2352      C2353   1.483       .  S
C2352      H2364   1.086       .  S
C2353      C2354   1.403       .  A
C2353      C2358   1.407       .  A
C2354      C2355   1.397       .  A
C2354      H2365   1.083       .  S
C2355      C2356   1.404       .  A
C2355      H2366   1.082       .  S
C2356      C2357   1.403       .  A
C2357      C2358   1.395       .  A
C2357      H2367   1.081       .  S
C2358      H2368   1.081       .  S
C2369      C2370   1.401       .  A
C2369      C2374   1.404       .  A
C2370      C2371   1.399       .  A
C2370      H2383   1.083       .  S
C2371      C2372   1.405       .  A
C2371      H2384   1.083       .  S
C2372      C2375   1.485       .  S
C2372      C2373   1.407       .  A
C2373      C2374   1.397       .  A
C2373      H2385   1.082       .  S
C2374      H2386   1.082       .  S
C2375      C2376   1.349       .  D
C2375      H2387   1.084       .  S
C2376      C2377   1.487       .  S
C2376      H2388   1.085       .  S
C2377      C2378   1.406       .  A
C2377      C2382   1.408       .  A
C2378      C2379   1.399       .  A
C2379      C2380   1.401       .  A
C2380      C2381   1.403       .  A
C2381      C2382   1.396       .  A
C2381      H2391   1.082       .  S
C2382      H2392   1.081       .  S
C2393      C2394   1.401       .  A
C2393      C2398   1.403       .  A
C2394      C2395   1.399       .  A
C2395      C2396   1.405       .  A
C2395      H2408   1.083       .  S
C2396      C2399   1.487       .  S
C2396      C2397   1.408       .  A
C2397      C2398   1.397       .  A
C2397      H2409   1.081       .  S
C2399      C2400   1.347       .  D
C2399      H2411   1.086       .  S
C2400      C2401   1.484       .  S
C2400      H2412   1.085       .  S
C2401      C2402   1.403       .  A
C2401      C2406   1.409       .  A
C2402      C2403   1.396       .  A
C2402      H2413   1.083       .  S
C2403      C2404   1.401       .  A
C2403      H2414   1.084       .  S
C2404      C2405   1.401       .  A
C2405      C2406   1.401       .  A
C2405      H2415   1.083       .  S
C2406      H2416   1.082       .  S
C2417      C2418   1.402       .  A
C2417      C2422   1.403       .  A
C2418      C2419   1.401       .  A
C2418      H2431   1.083       .  S
C2419      C2420   1.406       .  A
C2419      H2432   1.083       .  S
C2420      C2423   1.491       .  S
C2420      C2421   1.408       .  A
C2421      C2422   1.396       .  A
C2421      H2433   1.081       .  S
C2422      H2434   1.083       .  S
C2423      C2424   1.350       .  D
C2423      H2435   1.084       .  S
C2424      C2425   1.490       .  S
C2424      H2436   1.085       .  S
C2425      C2426   1.405       .  A
C2425      C2430   1.408       .  A
C2426      C2427   1.398       .  A
C2426      H2437   1.083       .  S
C2427      C2428   1.401       .  A
C2427      H2438   1.083       .  S
C2428      C2429   1.406       .  A
C2429      C2430   1.400       .  A
C2429      H2439   1.083       .  S
C2430      H2440   1.081       .  S
C2441      C2442   1.407       .  A
C2441      C2446   1.406       .  A
C2442      C2443   1.397       .  A
C2442      H2455   1.083       .  S
C2443      C2444   1.403       .  A
C2443      H2456   1.083       .  S
C2444      C2447   1.489       .  S
C2444      C2445   1.409       .  A
C2445      C2446   1.401       .  A
C2445      H2457   1.081       .  S
C2446      H2458   1.083       .  S
C2447      C2448   1.348       .  D
C2447      H2459   1.084       .  S
C2448      C2449   1.491       .  S
C2448      H2460   1.085       .  S
C2449      C2450   1.405       .  A
C2449      C2454   1.409       .  A
C2450      C2451   1.398       .  A
C2450      H2461   1.083       .  S
C2451      C2452   1.403       .  A
C2451      H2462   1.082       .  S
C2452      C2453   1.403       .  A
C2453      C2454   1.398       .  A
C2453      H2463   1.083       .  S
C2454      H2464   1.080       .  S
C2465      C2466   1.399       .  A
C2465      C2470   1.399       .  A
C2466      C2467   1.394       .  A
C2466      H2479   1.082       .  S
C2467      C2468   1.403       .  A
C2467      H2480   1.083       .  S
C2468      C2471   1.481       .  S
C2468      C2469   1.409       .  A
C2469      C2470   1.398       .  A
C2469      H2481   1.082       .  S
C2470      H2482   1.083       .  S
C2471      C2472   1.346       .  D
C2471      H2483   1.082       .  S
C2472      C2473   1.488       .  S
C2472      H2484   1.086       .  S
C2473      C2474   1.403       .  A
C2473      C2478   1.410       .  A
C2474      C2475   1.396       .  A
C2474      H2485   1.084       .  S
C2475      C2476   1.406       .  A
C2475      H2486   1.083       .  S
C2476      C2477   1.404       .  A
C2477      C2478   1.398       .  A
C2477      H2487   1.083       .  S
C2478      H2488   1.079       .  S
C2489      C2490   1.404       .  A
C2489      C2494   1.402       .  A
C2490      C2491   1.398       .  A
C2490      H2503   1.082       .  S
C2491      C2492   1.404       .  A
C2491      H2504   1.083       .  S
C2492      C2495   1.484       .  S
C2492      C2493   1.406       .  A
C2493      C2494   1.392       .  A
C2493      H2505   1.081       .  S
C2494      H2506   1.080       .  S
C2495      C2496   1.347       .  D
C2495      H2507   1.084       .  S
C2496      C2497   1.483       .  S
C2496      H2508   1.084       .  S
C2497      C2498   1.403       .  A
C2497      C2502   1.407       .  A
C2498      C2499   1.396       .  A
C2498      H2509   1.084       .  S
C2499      C2500   1.405       .  A
C2499      H2510   1.083       .  S
C2500      C2501   1.405       .  A
C2501      C2502   1.396       .  A
C2501      H2511   1.083       .  S
C2502      H2512   1.081       .  S
C2513      C2514   1.403       .  A
C2513      C2518   1.402       .  A
C2514      C2515   1.396       .  A
C2515      C2516   1.402       .  A
C2515      H2528   1.083       .  S
C2516      C2519   1.485       .  S
C2516      C2517   1.409       .  A
C2517      C2518   1.404       .  A
C2517      H2529   1.082       .  S
C2518      H2530   1.083       .  S
C2519      C2520   1.348       .  D
C2519      H2531   1.085       .  S
C2520      C2521   1.490       .  S
C2520      H2532   1.087       .  S
C2521      C2522   1.406       .  A
C2521      C2526   1.408       .  A
C2522      C2523   1.401       .  A
C2522      H2533   1.083       .  S
C2523      C2524   1.401       .  A
C2523      H2534   1.083       .  S
C2524      C2525   1.404       .  A
C2525      C2526   1.398       .  A
C2525      H2535   1.082       .  S
C2526      H2536   1.081       .  S
C2537      C2538   1.402       .  A
C2537      C2542   1.401       .  A
C2538      C2539   1.396       .  A
C2538      H2551   1.084       .  S
C2539      C2540   1.403       .  A
C2539      H2552   1.083       .  S
C2540      C2543   1.489       .  S
C2540      C2541   1.411       .  A
C2541      C2542   1.403       .  A
C2541      H2553   1.081       .  S
C2542      H2554   1.083   1_565  S
C2543      C2544   1.348       .  D
C2543      H2555   1.085       .  S
C2544      C2545   1.490       .  S
C2544      H2556   1.085       .  S
C2545      C2546   1.404       .  A
C2545      C2550   1.411       .  A
C2546      C2547   1.398       .  A
C2546      H2557   1.083       .  S
C2547      C2548   1.402       .  A
C2547      H2558   1.083       .  S
C2548      C2549   1.401       .  A
C2549      C2550   1.402       .  A
C2549      H2559   1.083       .  S
C2550      H2560   1.081       .  S
C2561      C2562   1.401       .  A
C2561      C2566   1.401       .  A
C2562      C2563   1.397       .  A
C2562      H2575   1.083       .  S
C2563      C2564   1.403       .  A
C2563      H2576   1.083       .  S
C2564      C2567   1.485       .  S
C2564      C2565   1.409       .  A
C2565      C2566   1.402       .  A
C2565      H2577   1.082       .  S
C2566      H2578   1.083       .  S
C2567      C2568   1.347       .  D
C2567      H2579   1.086       .  S
C2568      C2569   1.488       .  S
C2568      H2580   1.086       .  S
C2569      C2570   1.406       .  A
C2569      C2574   1.408       .  A
C2570      C2571   1.401       .  A
C2570      H2581   1.083       .  S
C2571      C2572   1.402       .  A
C2572      C2573   1.403       .  A
C2573      C2574   1.397       .  A
C2573      H2583   1.083       .  S
C2574      H2584   1.082       .  S
C2585      C2586   1.398       .  A
C2585      C2590   1.399       .  A
C2586      C2587   1.393       .  A
C2586      H2599   1.083       .  S
C2587      C2588   1.402       .  A
C2587      H2600   1.083       .  S
C2588      C2591   1.479       .  S
C2588      C2589   1.410       .  A
C2589      C2590   1.398       .  A
C2589      H2601   1.082       .  S
C2590      H2602   1.083       .  S
C2591      C2592   1.342       .  D
C2591      H2603   1.086       .  S
C2592      C2593   1.479       .  S
C2592      H2604   1.086       .  S
C2593      C2594   1.399       .  A
C2593      C2598   1.408       .  A
C2594      C2595   1.393       .  A
C2594      H2605   1.084       .  S
C2595      C2596   1.407       .  A
C2595      H2606   1.083       .  S
C2596      C2597   1.404       .  A
C2597      C2598   1.399       .  A
C2597      H2607   1.083       .  S
C2598      H2608   1.082       .  S
C2609      C2610   1.405       .  A
C2609      C2614   1.402       .  A
C2610      C2611   1.399       .  A
C2610      H2623   1.083       .  S
C2611      C2612   1.404       .  A
C2611      H2624   1.083       .  S
C2612      C2615   1.484       .  S
C2612      C2613   1.406       .  A
C2613      C2614   1.395       .  A
C2613      H2625   1.082       .  S
C2614      H2626   1.080       .  S
C2615      C2616   1.347       .  D
C2615      H2627   1.086       .  S
C2616      C2617   1.483       .  S
C2616      H2628   1.086       .  S
C2617      C2618   1.404       .  A
C2617      C2622   1.406       .  A
C2618      C2619   1.398       .  A
C2618      H2629   1.083       .  S
C2619      C2620   1.405       .  A
C2619      H2630   1.083       .  S
C2620      C2621   1.407       .  A
C2621      C2622   1.395       .  A
C2621      H2631   1.083       .  S
C2622      H2632   1.082       .  S
C2633      C2634   1.405       .  A
C2633      C2638   1.407       .  A
C2634      C2635   1.400       .  A
C2634      H2647   1.083       .  S
C2635      C2636   1.405       .  A
C2635      H2648   1.083       .  S
C2636      C2639   1.485       .  S
C2636      C2637   1.405       .  A
C2637      C2638   1.394       .  A
C2637      H2649   1.081       .  S
C2638      H2650   1.083       .  S
C2639      C2640   1.349       .  D
C2639      H2651   1.085       .  S
C2640      C2641   1.484       .  S
C2640      H2652   1.085       .  S
C2641      C2642   1.405       .  A
C2641      C2646   1.407       .  A
C2642      C2643   1.398       .  A
C2642      H2653   1.083       .  S
C2643      C2644   1.403       .  A
C2643      H2654   1.083       .  S
C2644      C2645   1.402       .  A
C2645      C2646   1.395       .  A
C2645      H2655   1.084       .  S
C2646      H2656   1.082       .  S
C2657      C2658   1.402       .  A
C2657      C2662   1.402       .  A
C2658      C2659   1.397       .  A
C2658      H2671   1.083       .  S
C2659      C2660   1.404       .  A
C2659      H2672   1.083       .  S
C2660      C2663   1.494       .  S
C2660      C2661   1.412       .  A
C2661      C2662   1.405       .  A
C2661      H2673   1.081       .  S
C2662      H2674   1.083       .  S
C2663      C2664   1.350       .  D
C2663      H2675   1.085       .  S
C2664      C2665   1.495       .  S
C2664      H2676   1.085       .  S
C2665      C2666   1.405       .  A
C2665      C2670   1.412       .  A
C2666      C2667   1.399       .  A
C2666      H2677   1.083       .  S
C2667      C2668   1.403       .  A
C2667      H2678   1.083       .  S
C2668      C2669   1.402       .  A
C2669      C2670   1.404       .  A
C2669      H2679   1.083       .  S
C2670      H2680   1.081       .  S
C2681      C2682   1.406       .  A
C2681      C2686   1.404       .  A
C2682      C2683   1.393       .  A
C2682      H2695   1.082       .  S
C2683      C2684   1.398       .  A
C2683      H2696   1.083       .  S
C2684      C2687   1.478       .  S
C2684      C2685   1.407       .  A
C2685      C2686   1.404       .  A
C2685      H2697   1.083       .  S
C2686      H2698   1.083       .  S
C2687      C2688   1.340       .  D
C2687      H2699   1.087       .  S
C2688      C2689   1.482       .  S
C2688      H2700   1.087       .  S
C2689      C2690   1.400       .  A
C2689      C2694   1.408       .  A
C2690      C2691   1.395       .  A
C2690      H2701   1.083       .  S
C2691      C2692   1.406       .  A
C2691      H2702   1.083       .  S
C2692      C2693   1.402       .  A
C2693      C2694   1.402       .  A
C2693      H2703   1.081       .  S
C2694      H2704   1.083       .  S
C2705      C2706   1.402       .  A
C2705      C2710   1.405       .  A
C2706      C2707   1.403       .  A
C2707      C2708   1.407       .  A
C2707      H2720   1.083       .  S
C2708      C2711   1.494       .  S
C2708      C2709   1.408       .  A
C2709      C2710   1.398       .  A
C2709      H2721   1.081       .  S
C2710      H2722   1.083       .  S
C2711      C2712   1.352       .  D
C2711      H2723   1.085       .  S
C2712      C2713   1.491       .  S
C2712      H2724   1.084       .  S
C2713      C2714   1.406       .  A
C2713      C2718   1.408       .  A
C2714      C2715   1.401       .  A
C2714      H2725   1.083       .  S
C2715      C2716   1.401       .  A
C2715      H2726   1.081       .  S
C2716      C2717   1.405       .  A
C2717      C2718   1.400       .  A
C2717      H2727   1.083       .  S
C2718      H2728   1.081       .  S
