geometry optimzed in LAMMPS
_audit_creation_date              2020-11-30 
_audit_creation_method            'lammps2cif' 
_symmetry_space_group_name_H-M    'P1' 
_symmetry_Int_Tables_number       1 
_symmetry_cell_setting            triclinic 
loop_ 
_symmetry_equiv_pos_as_xyz 
  x,y,z 
_cell_length_a                    31.38688129 
_cell_length_b                    31.586059870342353 
_cell_length_c                    54.527359513928445 
_cell_angle_alpha                 90.04365339935929 
_cell_angle_beta                  90.0021744764494 
_cell_angle_gamma                 89.9452508091287 
loop_ 
_atom_site_label 
_atom_site_type_symbol 
_atom_site_fract_x 
_atom_site_fract_y 
_atom_site_fract_z 
_atom_site_charge 
O1          O  0.46981074  0.43031669  0.88761047    -0.86200
O2          O  0.05429727  0.40816533  0.88357630    -0.83300
C3          C  0.07381230  0.43272751  0.89799837     0.97300
O4          O  0.06977650  0.42817906  0.92086435    -0.83300
O5          O  0.03175160  0.40867932  0.96476923    -0.85900
C6          C  0.50118188  0.43499790  0.96594071     1.01800
O7          O  0.46891531  0.43048735  0.95242219    -0.78700
O8          O  0.42054108  0.40762917  0.91246948    -0.78900
C9          C  0.43302386  0.43393511  0.89665233     1.01700
O10         O  0.44607176  0.34208620  0.88557073    -0.86200
O11         O  0.03079534  0.32072531  0.88554130    -0.83300
C12         C  0.06787917  0.31564836  0.89387231     0.97300
O13         O  0.08210756  0.33965060  0.91058412    -0.83300
O14         O  0.03749047  0.32001147  0.95232401    -0.85900
C15         C  0.50674426  0.31693648  0.96703628     1.01700
O16         O  0.47665271  0.34348805  0.96614746    -0.78700
O17         O  0.43583321  0.32061763  0.92327950    -0.78900
C18         C  0.42879333  0.31674659  0.90061713     1.01700
Cr19       Cr  0.50036696  0.37534909  0.88801921     1.93700
Cr20       Cr  0.05158488  0.37413694  0.93597767     1.93200
Cr21       Cr  0.45418870  0.37550587  0.93732858     1.39100
O22         O  0.50218199  0.37485046  0.92040172    -1.24000
O23         O  0.21770029  0.17840324  0.87152761    -0.86200
O24         O  0.19835415  0.09364026  0.87041833    -0.83300
C25         C  0.19468403  0.05671651  0.86192482     0.97300
O26         O  0.21951764  0.04371032  0.84523008    -0.83300
O27         O  0.19712788  0.08759051  0.80347316    -0.85900
C28         C  0.19206410  0.11884080  0.78934200     1.01800
O29         O  0.21717749  0.15001898  0.79063191    -0.78700
O30         O  0.19444303  0.18861241  0.83427502    -0.78900
C31         C  0.19076945  0.19452323  0.85709791     1.01700
O32         O  0.30644253  0.15792700  0.86910810    -0.86200
O33         O  0.28693189  0.07304795  0.87220168    -0.83300
C34         C  0.31239772  0.05516646  0.85751428     0.97300
O35         O  0.30792295  0.05974230  0.83469308    -0.83300
O36         O  0.28547270  0.09735625  0.79104593    -0.85900
C37         C  0.31047496  0.12857238  0.78943242     1.01700
O38         O  0.30522530  0.16047005  0.80310988    -0.78700
O39         O  0.28240217  0.20659241  0.84423595    -0.78900
C40         C  0.30864858  0.19490011  0.86047426     1.01700
Cr41       Cr  0.25233771  0.12564592  0.86826570     1.93700
Cr42       Cr  0.25245512  0.07584455  0.81986269     1.93200
Cr43       Cr  0.24994953  0.17275976  0.81930903     1.39100
O44         O  0.25157244  0.12466360  0.83580308    -1.24000
O45         O  0.22032175  0.31883620  0.61772713    -0.86200
O46         O  0.30483102  0.34229405  0.62029582    -0.83300
C47         C  0.32353045  0.31755862  0.60558567     0.97300
O48         O  0.31702506  0.32052491  0.58281827    -0.83300
O49         O  0.27814121  0.34159549  0.53922761    -0.85900
C50         C  0.24676812  0.31677379  0.53727390     1.01800
O51         O  0.21485816  0.32048840  0.55115363    -0.78700
O52         O  0.16969756  0.33994224  0.59291800    -0.78900
C53         C  0.18367733  0.31393634  0.60859205     1.01700
O54         O  0.19548925  0.40589908  0.62053700    -0.86200
O55         O  0.27982606  0.42968072  0.61801756    -0.83300
C56         C  0.31650974  0.43448050  0.60893510     0.97300
O57         O  0.33026162  0.40833496  0.59329400    -0.83300
O58         O  0.28445596  0.42959704  0.55214443    -0.85900
C59         C  0.25243789  0.43410579  0.53841392     1.01700
O60         O  0.22180268  0.40826263  0.53952339    -0.78700
O61         O  0.18314411  0.42817766  0.58328720    -0.78900
C62         C  0.17695257  0.43104507  0.60606679     1.01700
Cr63       Cr  0.25010192  0.37417518  0.61666138     1.93700
Cr64       Cr  0.29872650  0.37495313  0.56805531     1.93200
Cr65       Cr  0.20110719  0.37422888  0.56799875     1.39100
O66         O  0.24995740  0.37427430  0.58418966    -1.24000
O67         O  0.03562852  0.17666098  0.63195380    -0.86200
O68         O  0.05373713  0.09199131  0.63409615    -0.83300
C69         C  0.05617768  0.05486605  0.64227510     0.97300
O70         O  0.03019175  0.04238780  0.65851953    -0.83300
O71         O  0.05426252  0.08599156  0.69999018    -0.85900
C72         C  0.06011848  0.11683877  0.71426336     1.01800
O73         O  0.03625634  0.14918127  0.71279913    -0.78700
O74         O  0.05829014  0.18715561  0.66932510    -0.78900
C75         C  0.06242281  0.19273554  0.64660189     1.01700
O76         O  0.44645516  0.15679520  0.63465557    -0.86200
O77         O  0.46451159  0.07219177  0.63208717    -0.83300
C78         C  0.43796892  0.05595561  0.64681542     0.97300
O79         O  0.44249020  0.06119492  0.66956779    -0.83300
O80         O  0.46633937  0.09823975  0.71311495    -0.85900
C81         C  0.44242352  0.13043700  0.71479770     1.01700
O82         O  0.44777370  0.16140083  0.70060973    -0.78700
O83         O  0.47005991  0.20602029  0.65928207    -0.78900
C84         C  0.44398197  0.19385830  0.64294350     1.01700
Cr85       Cr  0.00011484  0.12437918  0.63562501     1.93700
Cr86       Cr  0.99849789  0.07559310  0.68406037     1.93200
Cr87       Cr  0.00291979  0.17235732  0.68427013     1.39100
O88         O  0.00053442  0.12411431  0.66801772    -1.24000
O89         O  0.29867141  0.08842364  0.38260494    -0.86200
O90         O  0.21385880  0.06777753  0.38702815    -0.83300
C91         C  0.17696205  0.06521911  0.39610660     0.97300
O92         O  0.16484044  0.09249991  0.41149932    -0.83300
O93         O  0.21177396  0.07156251  0.45216034    -0.85900
C94         C  0.24421686  0.06651203  0.46546450     1.01800
O95         O  0.27550736  0.09157283  0.46379597    -0.78700
O96         O  0.31309032  0.06876777  0.42010471    -0.78900
C97         C  0.31819076  0.06448133  0.39730010     1.01700
O98         O  0.27723321  0.17616403  0.38347165    -0.86200
O99         O  0.19198423  0.15570037  0.38315658    -0.83300
C100        C  0.17474778  0.18187633  0.39759286     0.97300
O101        O  0.18191539  0.18003371  0.42032183    -0.83300
O102        O  0.22138447  0.15973701  0.46377124    -0.85900
C103        C  0.25306407  0.18432310  0.46464381     1.01700
O104        O  0.28435816  0.17900825  0.45048759    -0.78700
O105        O  0.32766755  0.15618615  0.40862816    -0.78900
C106        C  0.31457842  0.18032038  0.39164931     1.01700
Cr107      Cr  0.24549353  0.12213988  0.38658063     1.93700
Cr108      Cr  0.19873733  0.12584210  0.43571740     1.93200
Cr109      Cr  0.29635192  0.12392402  0.43457584     1.39100
O110        O  0.24696056  0.12415925  0.41898219    -1.24000
O111        O  0.44154685  0.40365313  0.36825259    -0.86200
O112        O  0.46233573  0.31917210  0.36968665    -0.83300
C113        C  0.43845746  0.30084972  0.35432480     0.97300
O114        O  0.44281791  0.30779679  0.33167959    -0.83300
O115        O  0.46622129  0.34966596  0.28940268    -0.85900
C116        C  0.44090830  0.38080325  0.28845918     1.01800
O117        O  0.44485595  0.41148245  0.30307258    -0.78700
O118        O  0.46588569  0.45472181  0.34517450    -0.78900
C119        C  0.43926399  0.44125057  0.36074702     1.01700
O120        O  0.03002168  0.42569327  0.37226814    -0.86200
O121        O  0.05060348  0.34158604  0.36916305    -0.83300
C122        C  0.05515571  0.30526130  0.36007261     0.97300
O123        O  0.03077909  0.29306779  0.34297446    -0.83300
O124        O  0.05407883  0.34044378  0.30267372    -0.85900
C125        C  0.05814991  0.37226047  0.28887245     1.01700
O126        O  0.03276794  0.40306592  0.29084975    -0.78700
O127        O  0.05400158  0.43804923  0.33524533    -0.78900
C128        C  0.05689796  0.44283498  0.35811066     1.01700
Cr129      Cr  0.99614013  0.37260795  0.36738277     1.93700
Cr130      Cr  0.99840625  0.32628998  0.31796613     1.93200
Cr131      Cr  0.99919926  0.42309236  0.31971370     1.39100
O132        O  0.99778345  0.37389033  0.33500898    -1.24000
O133        O  0.44356139  0.09165119  0.12171829    -0.86200
O134        O  0.02868842  0.06877547  0.11978449    -0.83300
C135        C  0.06594173  0.06546911  0.11131910     0.97300
O136        O  0.07946910  0.09243589  0.09605092    -0.83300
O137        O  0.03584520  0.07128011  0.05432869    -0.85900
C138        C  0.50434732  0.06638610  0.04009089     1.01800
O139        O  0.47280683  0.09138288  0.04119658    -0.78700
O140        O  0.43281487  0.06990051  0.08425391    -0.78900
C141        C  0.42754529  0.06528960  0.10702842     1.01700
O142        O  0.46718527  0.17862641  0.12038173    -0.86200
O143        O  0.05186867  0.15665338  0.12338316    -0.83300
C144        C  0.06909021  0.18303541  0.10904108     0.97300
O145        O  0.06298154  0.18001924  0.08629416    -0.83300
O146        O  0.02703756  0.15882473  0.04198720    -0.85900
C147        C  0.49579074  0.18410348  0.04027439     1.01700
O148        O  0.46388342  0.17946208  0.05397723    -0.78700
O149        O  0.41734760  0.15878587  0.09451153    -0.78900
C150        C  0.43080976  0.18369522  0.11101034     1.01700
Cr151      Cr  0.49774568  0.12392771  0.11887801     1.93700
Cr152      Cr  0.04768010  0.12563694  0.07084027     1.93200
Cr153      Cr  0.45019008  0.12478913  0.06974524     1.39100
O154        O  0.49838286  0.12474431  0.08644708    -1.24000
O155        O  0.21477804  0.31963667  0.13448423    -0.86200
O156        O  0.19105215  0.40384425  0.13628711    -0.83300
C157        C  0.18848337  0.44131799  0.14418976     0.97300
O158        O  0.21482748  0.45496473  0.15979274    -0.83300
O159        O  0.19601756  0.41021260  0.20208600    -0.85900
C160        C  0.19359285  0.37907068  0.21659362     1.01800
O161        O  0.21975183  0.34880232  0.21483157    -0.78700
O162        O  0.19636871  0.30774451  0.17247989    -0.78900
C163        C  0.19062163  0.30185003  0.14986786     1.01700
O164        O  0.30238665  0.34392034  0.13407210    -0.86200
O165        O  0.27891533  0.42745855  0.13146924    -0.83300
C166        C  0.30632169  0.44449735  0.14518292     0.97300
O167        O  0.30354039  0.44028551  0.16817150    -0.83300
O168        O  0.28460175  0.40445978  0.21283715    -0.85900
C169        C  0.31138451  0.37472201  0.21384651     1.01700
O170        O  0.30744834  0.34274621  0.20021955    -0.78700
O171        O  0.28462188  0.29479452  0.16049241    -0.78900
C172        C  0.30858516  0.30799406  0.14350369     1.01700
Cr173      Cr  0.24683929  0.37374854  0.13655201     1.93700
Cr174      Cr  0.24966240  0.42386936  0.18452579     1.93200
Cr175      Cr  0.25182608  0.32713010  0.18572844     1.39100
O176        O  0.24926016  0.37485907  0.16893767    -1.24000
C177        C  0.10279171  0.21868373  0.14487834    -0.10000
C178        C  0.09791425  0.21588388  0.11922750     0.06200
C179        C  0.12204518  0.24334141  0.10422749    -0.03800
C180        C  0.15067263  0.27148099  0.11493579    -0.08200
C181        C  0.15685443  0.27320662  0.14048120     0.05300
C182        C  0.13187119  0.24670386  0.15559297    -0.03300
Br183      Br  0.13623283  0.24536413  0.19076559    -0.03000
H184        H  0.08446330  0.19828429  0.15683438     0.09200
H185        H  0.16892852  0.29174704  0.10286723     0.07200
Br186      Br  0.11973408  0.24411279  0.06894862    -0.03400
C187        C  0.36387384  0.25396377  0.15204622    -0.10000
C188        C  0.34326255  0.27996785  0.13480484     0.06200
C189        C  0.35420451  0.27603816  0.10979246    -0.03800
C190        C  0.38315213  0.24469850  0.10245949    -0.08200
C191        C  0.40287081  0.21814309  0.11969367     0.05300
C192        C  0.39394606  0.22380364  0.14477792    -0.03300
Br193      Br  0.41949787  0.18927145  0.16974008    -0.03000
H194        H  0.35610779  0.25672336  0.17135388     0.09200
H195        H  0.39020114  0.24086791  0.08311889     0.07200
Br196      Br  0.32903369  0.31044183  0.08464356    -0.03400
C197        C  0.37394850  0.50843778  0.10037313    -0.10000
C198        C  0.40036141  0.03073772  0.11664450     0.06200
C199        C  0.39878374  0.02054170  0.14191065    -0.03800
C200        C  0.36875222  0.99162819  0.15045221    -0.08200
C201        C  0.34024665  0.47144566  0.13443778     0.05300
C202        C  0.34443881  0.47874372  0.10887004    -0.03300
Br203      Br  0.31171692  0.45001996  0.08407480    -0.03000
H204        H  0.37550292  0.51473247  0.08086430     0.09200
H205        H  0.36743422  0.98542075  0.16997065     0.07200
Br206      Br  0.43661633  0.04369904  0.16622417    -0.03400
C207        C  0.13958510  0.03955559  0.11702731    -0.10000
C208        C  0.09571474  0.03194044  0.11976970     0.06200
C209        C  0.08244116  0.49274084  0.12979497    -0.03800
C210        C  0.11301628  0.46253245  0.13677245    -0.08200
C211        C  0.15667016  0.47104231  0.13440185     0.05300
C212        C  0.16980735  0.00987837  0.12433457    -0.03300
Br213      Br  0.22878052  0.02400005  0.11965271    -0.03000
H214        H  0.15076674  0.06918504  0.10939028     0.09200
H215        H  0.10272160  0.43279154  0.14467093     0.07200
Br216      Br  0.02364456  0.47785291  0.13400249    -0.03400
C217        C  0.13016442  0.35119999  0.27409945    -0.10000
C218        C  0.09229972  0.37378527  0.27009759     0.06200
C219        C  0.08836017  0.39821054  0.24845041    -0.03800
C220        C  0.12210238  0.40016629  0.23177447    -0.08200
C221        C  0.15997095  0.37758808  0.23571414     0.05300
C222        C  0.16383098  0.35283417  0.25728947    -0.03300
Br223      Br  0.21446997  0.32181679  0.26583191    -0.03000
H224        H  0.13395437  0.33260394  0.29068433     0.09200
H225        H  0.11811466  0.41863736  0.21516057     0.07200
Br226      Br  0.03694355  0.42734231  0.23929694    -0.03400
C227        C  0.33688763  0.39741214  0.25463646    -0.10000
C228        C  0.34554689  0.37698894  0.23227507     0.06200
C229        C  0.38629501  0.35966093  0.22820767    -0.03800
C230        C  0.41689113  0.36171052  0.24673501    -0.08200
C231        C  0.40792333  0.38132988  0.26929931     0.05300
C232        C  0.36754413  0.39972551  0.27310784    -0.03300
Br233      Br  0.35106022  0.42582428  0.30352872    -0.03000
H234        H  0.30565477  0.41084832  0.25802977     0.09200
H235        H  0.44811888  0.34823590  0.24336902     0.07200
Br236      Br  0.40306740  0.33526089  0.19740717    -0.03400
C237        C  0.09104198  0.23550654  0.35846471    -0.10000
C238        C  0.08763069  0.27542209  0.36974549     0.06200
C239        C  0.11411978  0.28445035  0.39014728    -0.03800
C240        C  0.14205857  0.25343294  0.39896844    -0.08200
C241        C  0.14493020  0.21361464  0.38769235     0.05300
C242        C  0.11910934  0.20483619  0.36712867    -0.03300
Br243      Br  0.11799150  0.15084230  0.35074039    -0.03000
H244        H  0.07124559  0.22753263  0.34287683     0.09200
H245        H  0.16200486  0.26064156  0.41461989     0.07200
Br246      Br  0.11465547  0.33782195  0.40712030    -0.03400
C247        C  0.38548825  0.21492437  0.39192472    -0.10000
C248        C  0.34472469  0.21219436  0.38128913     0.06200
C249        C  0.33529498  0.23891795  0.36108130    -0.03800
C250        C  0.36635202  0.26714205  0.35225713    -0.08200
C251        C  0.40671450  0.26983577  0.36328550     0.05300
C252        C  0.41616243  0.24295944  0.38318835    -0.03300
Br253      Br  0.47136783  0.24057317  0.39847021    -0.03000
H254        H  0.39412936  0.19472749  0.40716495     0.09200
H255        H  0.35868705  0.28758035  0.33694181     0.07200
Br256      Br  0.28125562  0.23917598  0.34450168    -0.03400
C257        C  0.35834026  0.99687892  0.40190856    -0.10000
C258        C  0.34814555  0.03238196  0.38754426     0.06200
C259        C  0.36770240  0.03692762  0.36430981    -0.03800
C260        C  0.39604678  0.50614394  0.35592481    -0.08200
C261        C  0.40652193  0.47077176  0.37027962     0.05300
C262        C  0.38734192  0.96632435  0.39363069    -0.03300
Br263      Br  0.40136238  0.92144057  0.41597613    -0.03000
H264        H  0.34405421  0.99305709  0.41984839     0.09200
H265        H  0.41065518  0.51043653  0.33810164     0.07200
Br266      Br  0.36068935  0.58575078  0.34354000    -0.03400
C267        C  0.15860546  0.00568766  0.36794341    -0.10000
C268        C  0.14690727  0.03183030  0.38776419     0.06200
C269        C  0.10617916  0.02603099  0.39857087    -0.03800
C270        C  0.07820836  0.49608151  0.38885139    -0.08200
C271        C  0.08935977  0.47141831  0.36848471     0.05300
C272        C  0.13035553  0.47573484  0.35827569    -0.03300
Br273      Br  0.15021929  0.44052919  0.33189789    -0.03000
H274        H  0.18975263  0.00880429  0.35960182     0.09200
H275        H  0.04687529  0.49283427  0.39698766     0.07200
Br276      Br  0.08519773  0.05729799  0.42639164    -0.03400
C277        C  0.26582053  0.04012297  0.50642227    -0.10000
C278        C  0.24550974  0.03232361  0.48391005     0.06200
C279        C  0.22768158  0.49204703  0.47951066    -0.03800
C280        C  0.23041228  0.46068928  0.49753459    -0.08200
C281        C  0.25084978  0.46845312  0.52004016     0.05300
C282        C  0.26828198  0.00885350  0.52450341    -0.03300
Br283      Br  0.29275666  0.02456104  0.55546664    -0.03000
H284        H  0.27911963  0.07106531  0.51019386     0.09200
H285        H  0.21702823  0.42978082  0.49375960     0.07200
Br286      Br  0.20168536  0.47688928  0.44881727    -0.03400
C287        C  0.21551514  0.24322182  0.48537920    -0.10000
C288        C  0.25281511  0.21907771  0.48267174     0.06200
C289        C  0.28818612  0.22779002  0.49776100    -0.03800
C290        C  0.28549795  0.25982925  0.51540804    -0.08200
C291        C  0.24798055  0.28352854  0.51834860     0.05300
C292        C  0.21303914  0.27561653  0.50280536    -0.03300
Br293      Br  0.16273396  0.31024152  0.50314970    -0.03000
H294        H  0.18839467  0.23731779  0.47355954     0.09200
H295        H  0.31262302  0.26577359  0.52721513     0.07200
Br296      Br  0.33978796  0.19523573  0.49627382    -0.03400
C297        C  0.09316795  0.23460481  0.61244840    -0.10000
C298        C  0.09670492  0.22038053  0.63678257     0.06200
C299        C  0.13196017  0.23407769  0.65091465    -0.03800
C300        C  0.16071962  0.26342571  0.64109359    -0.08200
C301        C  0.15552262  0.27943423  0.61725573     0.05300
C302        C  0.12203658  0.26350609  0.60260251    -0.03300
Br303      Br  0.11406324  0.27854417  0.56873388    -0.03000
H304        H  0.06720245  0.22384061  0.60095416     0.09200
H305        H  0.18671229  0.27457531  0.65244242     0.07200
Br306      Br  0.14377166  0.21384906  0.68345098    -0.03400
C307        C  0.40827840  0.26408148  0.64442905    -0.10000
C308        C  0.41177675  0.22416189  0.63315319     0.06200
C309        C  0.38550276  0.21539958  0.61255908    -0.03800
C310        C  0.35727196  0.24633040  0.60385345    -0.08200
C311        C  0.35403269  0.28600608  0.61524781     0.05300
C312        C  0.38009136  0.29479574  0.63571922    -0.03300
Br313      Br  0.38138318  0.34910867  0.65167676    -0.03000
H314        H  0.42806179  0.27194809  0.66004672     0.09200
H315        H  0.33741792  0.23918084  0.58813464     0.07200
Br316      Br  0.38614743  0.16275119  0.59481813    -0.03400
C317        C  0.33802621  0.98767051  0.64057436    -0.10000
C318        C  0.34499248  0.46893899  0.61750990     0.06200
C319        C  0.38055243  0.48224355  0.60355120    -0.03800
C320        C  0.40924240  0.51132127  0.61336029    -0.08200
C321        C  0.40379972  0.02822414  0.63697314     0.05300
C322        C  0.36685433  0.01711202  0.65035588    -0.03300
Br323      Br  0.35295906  0.04152128  0.68164089    -0.03000
H324        H  0.31052613  0.97866495  0.65137219     0.09200
H325        H  0.43675462  0.51997746  0.60247277     0.07200
Br326      Br  0.39247942  0.46303892  0.57074433    -0.03400
C327        C  0.09793120  0.48893383  0.64692300    -0.10000
C328        C  0.08861649  0.02491628  0.63279746     0.06200
C329        C  0.10935887  0.03006720  0.60994178    -0.03800
C330        C  0.13818339  0.99930872  0.60179757    -0.08200
C331        C  0.14702648  0.46309996  0.61586376     0.05300
C332        C  0.12643900  0.45814889  0.63875656    -0.03300
Br333      Br  0.13285078  0.40921036  0.65943189    -0.03000
H334        H  0.08247194  0.48426712  0.66448108     0.09200
H335        H  0.15362816  0.00367854  0.58420769     0.07200
Br336      Br  0.09878959  0.07667799  0.58811456    -0.03400
C337        C  0.10865312  0.15453970  0.74289015    -0.10000
C338        C  0.09439537  0.11582932  0.73319527     0.06200
C339        C  0.11241007  0.07791044  0.74243615    -0.03800
C340        C  0.14360716  0.07962080  0.76087381    -0.08200
C341        C  0.15797047  0.11847011  0.77037146     0.05300
C342        C  0.13990118  0.15626038  0.76112650    -0.03300
Br343      Br  0.15430959  0.21159012  0.77326274    -0.03000
H344        H  0.09532347  0.18403626  0.73626392     0.09200
H345        H  0.15700653  0.05027021  0.76767356     0.07200
Br346      Br  0.09512747  0.02257722  0.73168823    -0.03400
C347        C  0.36047008  0.16732928  0.76197763    -0.10000
C348        C  0.34460817  0.12845873  0.77055130     0.06200
C349        C  0.36120732  0.09057032  0.76043598    -0.03800
C350        C  0.39295580  0.09237888  0.74252064    -0.08200
C351        C  0.40851111  0.13119047  0.73376493     0.05300
C352        C  0.39169384  0.16908771  0.74365719    -0.03300
Br353      Br  0.41049108  0.22441169  0.73383144    -0.03000
H354        H  0.34810322  0.19674526  0.76933492     0.09200
H355        H  0.40527146  0.06292894  0.73516661     0.07200
Br356      Br  0.34332359  0.03485514  0.77021389    -0.03400
C357        C  0.02605306  0.46323537  0.00609938    -0.10000
C358        C  0.50272471  0.46959345  0.98429990     0.06200
C359        C  0.48130077  0.50847732  0.98087282    -0.03800
C360        C  0.48244385  0.03929537  0.99922954    -0.08200
C361        C  0.50492794  0.03265789  0.02118907     0.05300
C362        C  0.02722348  0.99408890  0.02447252    -0.03300
Br363      Br  0.05715246  0.98003596  0.05414738    -0.03000
H364        H  0.04244288  0.43350559  0.00916491     0.09200
H365        H  0.46598792  0.06899443  0.99617371     0.07200
Br366      Br  0.45181135  0.52271864  0.95109775    -0.03400
C367        C  0.46581260  0.27440483  0.99713277    -0.06000
C368        C  0.50509142  0.28280755  0.98570014     0.06200
C369        C  0.04109588  0.25862695  0.99260420    -0.03800
C370        C  0.03700657  0.22715253  0.01043041    -0.08200
C371        C  0.49755717  0.21856739  0.02178000     0.05300
C372        C  0.46162188  0.24280958  0.01487152    -0.03300
Br373      Br  0.40531470  0.23431412  0.02782587    -0.03000
H374        H  0.43767703  0.29222966  0.99203002     0.09200
H375        H  0.06517009  0.20933571  0.01547609     0.07200
Br376      Br  0.09717394  0.26706793  0.97931689    -0.03400
C377        C  0.12919383  0.24347373  0.85056518    -0.10000
C378        C  0.15655365  0.22241844  0.86700980     0.06200
C379        C  0.15148711  0.23010522  0.89251484    -0.03800
C380        C  0.12188537  0.26002337  0.90061164    -0.08200
C381        C  0.09581967  0.28197177  0.88411207     0.05300
C382        C  0.09887563  0.27274040  0.85887109    -0.03300
Br383      Br  0.06494301  0.30121292  0.83466576    -0.03000
H384        H  0.13192954  0.23797816  0.83103516     0.09200
H385        H  0.11920464  0.26625814  0.92008048     0.07200
Br386      Br  0.18290556  0.20154100  0.91793054    -0.03400
C387        C  0.38164393  0.29046055  0.86747472    -0.10000
C388        C  0.39846231  0.28444954  0.89111239     0.06200
C389        C  0.38556917  0.24833040  0.90453801    -0.03800
C390        C  0.35713649  0.21927294  0.89399272    -0.08200
C391        C  0.34022215  0.22557966  0.87036179     0.05300
C392        C  0.35279941  0.26198322  0.85714059    -0.03300
Br393      Br  0.33316101  0.27516147  0.82460579    -0.03000
H394        H  0.39061561  0.31799704  0.85683377     0.09200
H395        H  0.34762080  0.19187124  0.90459396     0.07200
Br396      Br  0.40552825  0.23597204  0.93708947    -0.03400
C397        C  0.33622176  0.00557429  0.88972528    -0.10000
C398        C  0.34522228  0.02634808  0.86759560     0.06200
C399        C  0.38468596  0.01874705  0.85602293    -0.03800
C400        C  0.41315793  0.48928462  0.86606235    -0.08200
C401        C  0.40335274  0.46717106  0.88773958     0.05300
C402        C  0.36459949  0.47653649  0.89992418    -0.03300
Br403      Br  0.34759119  0.45212202  0.93074772    -0.03000
H404        H  0.30640499  0.01147253  0.89911337     0.09200
H405        H  0.44295270  0.48342962  0.85666251     0.07200
Br406      Br  0.40287294  0.04925050  0.82748865    -0.03400
C407        C  0.12121043  0.99523047  0.90447597    -0.10000
C408        C  0.10275450  0.46597845  0.88810417     0.06200
C409        C  0.11338354  0.46889102  0.86286466    -0.03800
C410        C  0.14276964  0.49913597  0.85497274    -0.08200
C411        C  0.16174048  0.02757692  0.87142431     0.05300
C412        C  0.15022540  0.02587269  0.89640429    -0.03300
Br413      Br  0.17501914  0.06233885  0.92072131    -0.03000
H414        H  0.11355065  0.99402869  0.92383288     0.09200
H415        H  0.15096893  0.50041056  0.83567639     0.07200
Br416      Br  0.09046530  0.43284402  0.83765590    -0.03400
O417        O  0.46980127  0.93028045  0.88758254    -0.86200
O418        O  0.05429810  0.90816314  0.88355995    -0.83300
C419        C  0.07381288  0.93271400  0.89798871     0.97300
O420        O  0.06978870  0.92813848  0.92085364    -0.83300
O421        O  0.03172853  0.90864448  0.96474756    -0.85900
C422        C  0.50115171  0.93495774  0.96591099     1.01800
O423        O  0.46889086  0.93044283  0.95238823    -0.78700
O424        O  0.42052902  0.90756997  0.91243091    -0.78900
C425        C  0.43300961  0.93388672  0.89661912     1.01700
O426        O  0.44609520  0.84203418  0.88553602    -0.86200
O427        O  0.03082628  0.82071567  0.88550594    -0.83300
C428        C  0.06790086  0.81562422  0.89384769     0.97300
O429        O  0.08211764  0.83959796  0.91057668    -0.83300
O430        O  0.03747444  0.81997179  0.95231286    -0.85900
C431        C  0.50673512  0.81690609  0.96702449     1.01700
O432        O  0.47663418  0.84344622  0.96612212    -0.78700
O433        O  0.43584637  0.82056461  0.92324454    -0.78900
C434        C  0.42881525  0.81669235  0.90058137     1.01700
Cr435      Cr  0.50037720  0.87532108  0.88799038     1.93700
Cr436      Cr  0.05158000  0.87409479  0.93596278     1.93200
Cr437      Cr  0.45418110  0.87545649  0.93729500     1.39100
O438        O  0.50218319  0.87480859  0.92037428    -1.24000
O439        O  0.21768359  0.67837750  0.87149324    -0.86200
O440        O  0.19834799  0.59360711  0.87038874    -0.83300
C441        C  0.19469763  0.55667554  0.86190346     0.97300
O442        O  0.21953802  0.54366592  0.84521342    -0.83300
O443        O  0.19715662  0.58752518  0.80344672    -0.85900
C444        C  0.19209801  0.61877150  0.78931179     1.01800
O445        O  0.21721086  0.64994969  0.79060246    -0.78700
O446        O  0.19443727  0.68855925  0.83423556    -0.78900
C447        C  0.19074874  0.69447578  0.85705735     1.01700
O448        O  0.30642840  0.65789784  0.86908910    -0.86200
O449        O  0.28691970  0.57302749  0.87219159    -0.83300
C450        C  0.31240364  0.55515372  0.85751209     0.97300
O451        O  0.30794205  0.55971741  0.83468938    -0.83300
O452        O  0.28550393  0.59730362  0.79103416    -0.85900
C453        C  0.31050370  0.62852153  0.78942432     1.01700
O454        O  0.30524434  0.66042109  0.80309870    -0.78700
O455        O  0.28239283  0.70655692  0.84421193    -0.78900
C456        C  0.30863939  0.69486680  0.86045089     1.01700
Cr457      Cr  0.25232559  0.62561844  0.86824344     1.93700
Cr458      Cr  0.25247828  0.57579680  0.81984733     1.93200
Cr459      Cr  0.24995766  0.67271048  0.81928285     1.39100
O460        O  0.25157708  0.62462161  0.83578171    -1.24000
O461        O  0.22031471  0.81883960  0.61772859    -0.86200
O462        O  0.30483403  0.84228879  0.62030341    -0.83300
C463        C  0.32353567  0.81755265  0.60559431     0.97300
O464        O  0.31703551  0.82051762  0.58282655    -0.83300
O465        O  0.27815773  0.84157067  0.53923259    -0.85900
C466        C  0.24678486  0.81674712  0.53728133     1.01800
O467        O  0.21487353  0.82047190  0.55116030    -0.78700
O468        O  0.16970067  0.83995980  0.59291893    -0.78900
C469        C  0.18366837  0.81394961  0.60859308     1.01700
O470        O  0.19549875  0.90591191  0.62053169    -0.86200
O471        O  0.27984037  0.92967834  0.61801883    -0.83300
C472        C  0.31652380  0.93447830  0.60893571     0.97300
O473        O  0.33027426  0.90833312  0.59329358    -0.83300
O474        O  0.28447352  0.92958075  0.55213924    -0.85900
C475        C  0.25245603  0.93408775  0.53840799     1.01700
O476        O  0.22182341  0.90824218  0.53951662    -0.78700
O477        O  0.18315601  0.92818483  0.58327973    -0.78900
C478        C  0.17696206  0.93105606  0.60605981     1.01700
Cr479      Cr  0.25010745  0.87417630  0.61666231     1.93700
Cr480      Cr  0.29874043  0.87494157  0.56805734     1.93200
Cr481      Cr  0.20112118  0.87422559  0.56799687     1.39100
O482        O  0.24996916  0.87427150  0.58419032    -1.24000
O483        O  0.03562643  0.67664728  0.63194845    -0.86200
O484        O  0.05372814  0.59197391  0.63408539    -0.83300
C485        C  0.05615983  0.55484548  0.64226053     0.97300
O486        O  0.03016579  0.54236273  0.65849842    -0.83300
O487        O  0.05427140  0.58594127  0.69996938    -0.85900
C488        C  0.06013836  0.61678462  0.71424380     1.01800
O489        O  0.03628160  0.64913264  0.71278659    -0.78700
O490        O  0.05829837  0.68713417  0.66931877    -0.78900
C491        C  0.06242092  0.69272364  0.64659580     1.01700
O492        O  0.44645750  0.65678662  0.63465618    -0.86200
O493        O  0.46450187  0.57218277  0.63208171    -0.83300
C494        C  0.43795824  0.55595031  0.64681100     0.97300
O495        O  0.44248295  0.56118841  0.66956309    -0.83300
O496        O  0.46636545  0.59820644  0.71311150    -0.85900
C497        C  0.44244880  0.63040130  0.71479663     1.01700
O498        O  0.44779450  0.66136633  0.70060977    -0.78700
O499        O  0.47006555  0.70600177  0.65928822    -0.78900
C500        C  0.44398352  0.69384571  0.64295003     1.01700
Cr501      Cr  0.00011024  0.62436664  0.63561806     1.93700
Cr502      Cr  0.99849753  0.57556432  0.68404721     1.93200
Cr503      Cr  0.00293301  0.67232733  0.68426732     1.39100
O504        O  0.00053877  0.62409137  0.66800998    -1.24000
O505        O  0.29868614  0.58841331  0.38258529    -0.86200
O506        O  0.21386868  0.56776958  0.38700387    -0.83300
C507        C  0.17697024  0.56521439  0.39608044     0.97300
O508        O  0.16485703  0.59248525  0.41148191    -0.83300
O509        O  0.21179415  0.57154405  0.45214288    -0.85900
C510        C  0.24423513  0.56649627  0.46544907     1.01800
O511        O  0.27552733  0.59155436  0.46377891    -0.78700
O512        O  0.31310476  0.56875344  0.42008509    -0.78900
C513        C  0.31821149  0.56447497  0.39728051     1.01700
O514        O  0.27724552  0.67615383  0.38345903    -0.86200
O515        O  0.19199792  0.65569403  0.38314201    -0.83300
C516        C  0.17476590  0.68186879  0.39758101     0.97300
O517        O  0.18193588  0.68002025  0.42030957    -0.83300
O518        O  0.22140850  0.65971547  0.46375808    -0.85900
C519        C  0.25308968  0.68430025  0.46463486     1.01700
O520        O  0.28438050  0.67899054  0.45047512    -0.78700
O521        O  0.32768275  0.65616453  0.40861067    -0.78900
C522        C  0.31459271  0.68030188  0.39163402     1.01700
Cr523      Cr  0.24550707  0.62213021  0.38656319     1.93700
Cr524      Cr  0.19875684  0.62582499  0.43570194     1.93200
Cr525      Cr  0.29636934  0.62390629  0.43455891     1.39100
O526        O  0.24697722  0.62414296  0.41896550    -1.24000
O527        O  0.44153685  0.90364837  0.36827997    -0.86200
O528        O  0.46234203  0.81917677  0.36969719    -0.83300
C529        C  0.43847521  0.80084546  0.35433423     0.97300
O530        O  0.44283847  0.80779598  0.33168936    -0.83300
O531        O  0.46622707  0.84970160  0.28942245    -0.85900
C532        C  0.44090642  0.88083327  0.28848323     1.01800
O533        O  0.44484922  0.91150811  0.30310004    -0.78700
O534        O  0.46586766  0.95472971  0.34520920    -0.78900
C535        C  0.43924247  0.94124601  0.36077593     1.01700
O536        O  0.03001476  0.92569440  0.37230347    -0.86200
O537        O  0.05060969  0.84159021  0.36918207    -0.83300
C538        C  0.05517025  0.80527286  0.36008202     0.97300
O539        O  0.03079750  0.79308808  0.34298028    -0.83300
O540        O  0.05408296  0.84049595  0.30269046    -0.85900
C541        C  0.05815008  0.87232163  0.28889582     1.01700
O542        O  0.03276176  0.90312041  0.29087890    -0.78700
O543        O  0.05398830  0.93807420  0.33528233    -0.78900
C544        C  0.05689026  0.94284208  0.35814855     1.01700
Cr545      Cr  0.99614152  0.87260976  0.36740732     1.93700
Cr546      Cr  0.99841554  0.82631935  0.31798101     1.93200
Cr547      Cr  0.99918932  0.92312088  0.31974758     1.39100
O548        O  0.99778237  0.87390981  0.33503347    -1.24000
O549        O  0.44356475  0.59163432  0.12173692    -0.86200
O550        O  0.02867049  0.56878989  0.11982093    -0.83300
C551        C  0.06592711  0.56548823  0.11136062     0.97300
O552        O  0.07946478  0.59246007  0.09609880    -0.83300
O553        O  0.03587326  0.57131358  0.05436640    -0.85900
C554        C  0.50441122  0.56642914  0.04012044     1.01800
O555        O  0.47286865  0.59142304  0.04122330    -0.78700
O556        O  0.43284707  0.56990715  0.08426515    -0.78900
C557        C  0.42755969  0.56528297  0.10703737     1.01700
O558        O  0.46717402  0.67860928  0.12042727    -0.86200
O559        O  0.05184214  0.65666992  0.12343018    -0.83300
C560        C  0.06906765  0.68306534  0.10909774     0.97300
O561        O  0.06300109  0.68004176  0.08634724    -0.83300
O562        O  0.02706544  0.65886881  0.04203238    -0.85900
C563        C  0.49583524  0.68414584  0.04031825     1.01700
O564        O  0.46392171  0.67949232  0.05401542    -0.78700
O565        O  0.41736159  0.65878173  0.09453713    -0.78900
C566        C  0.43080478  0.68367706  0.11104785     1.01700
Cr567      Cr  0.49774540  0.62391878  0.11891541     1.93700
Cr568      Cr  0.04769544  0.62566730  0.07088520     1.93200
Cr569      Cr  0.45022692  0.62480786  0.06977175     1.39100
O570        O  0.49840797  0.62476236  0.08648481    -1.24000
O571        O  0.21476752  0.81962126  0.13451681    -0.86200
O572        O  0.19107045  0.90384021  0.13629362    -0.83300
C573        C  0.18850122  0.94132000  0.14418594     0.97300
O574        O  0.21484133  0.95497903  0.15978837    -0.83300
O575        O  0.19601698  0.91025266  0.20209536    -0.85900
C576        C  0.19359481  0.87912411  0.21661316     1.01800
O577        O  0.21975787  0.84885865  0.21485946    -0.78700
O578        O  0.19635714  0.80778781  0.17252094    -0.78900
C579        C  0.19061222  0.80186061  0.14991210     1.01700
O580        O  0.30238716  0.84389085  0.13410391    -0.86200
O581        O  0.27894419  0.92743163  0.13147853    -0.83300
C582        C  0.30634469  0.94448115  0.14519285     0.97300
O583        O  0.30355140  0.94028910  0.16818179    -0.83300
O584        O  0.28460540  0.90449163  0.21285094    -0.85900
C585        C  0.31138427  0.87474926  0.21386654     1.01700
O586        O  0.30744463  0.84276831  0.20024428    -0.78700
O587        O  0.28460023  0.79478689  0.16053153    -0.78900
C588        C  0.30856931  0.80796666  0.14354042     1.01700
Cr589      Cr  0.24684846  0.87373226  0.13657146     1.93700
Cr590      Cr  0.24966810  0.92389195  0.18453394     1.93200
Cr591      Cr  0.25181961  0.82715643  0.18576048     1.39100
O592        O  0.24926385  0.87487098  0.16895703    -1.24000
C593        C  0.10315905  0.71832748  0.14493831    -0.10000
C594        C  0.09786713  0.71592315  0.11930107     0.06200
C595        C  0.12157363  0.74378279  0.10432311    -0.03800
C596        C  0.15021631  0.77191209  0.11503113    -0.08200
C597        C  0.15682333  0.77323176  0.14054766     0.05300
C598        C  0.13225750  0.74633005  0.15564673    -0.03300
Br599      Br  0.13731510  0.74434185  0.19077777    -0.03000
H600        H  0.08517619  0.69760694  0.15688258     0.09200
H601        H  0.16813786  0.79251011  0.10298453     0.07200
Br602      Br  0.11858800  0.74519687  0.06906841    -0.03400
C603        C  0.36381778  0.75389508  0.15208350    -0.10000
C604        C  0.34323395  0.77992365  0.13484354     0.06200
C605        C  0.35420069  0.77601528  0.10983333    -0.03800
C606        C  0.38315362  0.74468160  0.10250055    -0.08200
C607        C  0.40285148  0.71810925  0.11973324     0.05300
C608        C  0.39389414  0.72373889  0.14481579    -0.03300
Br609      Br  0.41941086  0.68917311  0.16977429    -0.03000
H610        H  0.35603129  0.75663589  0.17138909     0.09200
H611        H  0.39022550  0.74087117  0.08316157     0.07200
Br612      Br  0.32906165  0.81044179  0.08468428    -0.03400
C613        C  0.37400320  0.00837354  0.10037728    -0.10000
C614        C  0.40036414  0.53073179  0.11664098     0.06200
C615        C  0.39882370  0.52047988  0.14189994    -0.03800
C616        C  0.36877944  0.49157737  0.15043841    -0.08200
C617        C  0.34027249  0.97142795  0.13444876     0.05300
C618        C  0.34451207  0.97866482  0.10887845    -0.03300
Br619      Br  0.31189078  0.94982198  0.08408606    -0.03000
H620        H  0.37559244  0.01461772  0.08086409     0.09200
H621        H  0.36749589  0.48532218  0.16995260     0.07200
Br622      Br  0.43672941  0.54354338  0.16620521    -0.03400
C623        C  0.13956543  0.53963065  0.11713087    -0.10000
C624        C  0.09569534  0.53196177  0.11981142     0.06200
C625        C  0.08246229  0.99277110  0.12982348    -0.03800
C626        C  0.11303454  0.96256982  0.13681444    -0.08200
C627        C  0.15668705  0.97103118  0.13438534     0.05300
C628        C  0.16978887  0.50994919  0.12442616    -0.03300
Br629      Br  0.22876242  0.52415541  0.11982800    -0.03000
H630        H  0.15074370  0.56930470  0.10955022     0.09200
H631        H  0.10274042  0.93287284  0.14476839     0.07200
Br632      Br  0.02367086  0.97793743  0.13411565    -0.03400
C633        C  0.13014885  0.85123713  0.27411133    -0.10000
C634        C  0.09230372  0.87386123  0.27012271     0.06200
C635        C  0.08838602  0.89832620  0.24848891    -0.03800
C636        C  0.12212828  0.90027502  0.23181197    -0.08200
C637        C  0.15997545  0.87765267  0.23573701     0.05300
C638        C  0.16381425  0.85286396  0.25730088    -0.03300
Br639      Br  0.21441686  0.82177398  0.26582769    -0.03000
H640        H  0.13392327  0.83260989  0.29068559     0.09200
H641        H  0.11815549  0.91877579  0.21520810     0.07200
Br642      Br  0.03699872  0.92752516  0.23935264    -0.03400
C643        C  0.33690544  0.89749201  0.25464398    -0.10000
C644        C  0.34554595  0.87701565  0.23229630     0.06200
C645        C  0.38627323  0.85962637  0.22824556    -0.03800
C646        C  0.41686801  0.86168185  0.24677274    -0.08200
C647        C  0.40791989  0.88135752  0.26932324     0.05300
C648        C  0.36755930  0.89980425  0.27311709    -0.03300
Br649      Br  0.35109076  0.92597533  0.30352007    -0.03000
H650        H  0.30568782  0.91097057  0.25802635     0.09200
H651        H  0.44807948  0.84816316  0.24341720     0.07200
Br652      Br  0.40302426  0.83511865  0.19746965    -0.03400
C653        C  0.09103676  0.73550623  0.35847262    -0.10000
C654        C  0.08764937  0.77542938  0.36974762     0.06200
C655        C  0.11416702  0.78446141  0.39013643    -0.03800
C656        C  0.14210425  0.75343883  0.39895398    -0.08200
C657        C  0.14495009  0.71361292  0.38768457     0.05300
C658        C  0.11910608  0.70483245  0.36713114    -0.03300
Br659      Br  0.11796141  0.65083150  0.35075135    -0.03000
H660        H  0.07122026  0.72752900  0.34289391     0.09200
H661        H  0.16207127  0.76064980  0.41459621     0.07200
Br662      Br  0.11475198  0.83784933  0.40709136    -0.03400
C663        C  0.38541910  0.71505726  0.39200266    -0.10000
C664        C  0.34473631  0.71217997  0.38128048     0.06200
C665        C  0.33539104  0.73875340  0.36099435    -0.03800
C666        C  0.36644789  0.76698859  0.35218364    -0.08200
C667        C  0.40673242  0.76982916  0.36329495     0.05300
C668        C  0.41610016  0.74308951  0.38327401    -0.03300
Br669      Br  0.47120884  0.74086756  0.39868135    -0.03000
H670        H  0.39399299  0.69497599  0.40730676     0.09200
H671        H  0.35884513  0.78731132  0.33680659     0.07200
Br672      Br  0.28148620  0.73875171  0.34427008    -0.03400
C673        C  0.35837889  0.49688530  0.40188781    -0.10000
C674        C  0.34818067  0.53238936  0.38752566     0.06200
C675        C  0.36775095  0.53695172  0.36429629    -0.03800
C676        C  0.39600004  0.00611864  0.35594235    -0.08200
C677        C  0.40648327  0.97075552  0.37030248     0.05300
C678        C  0.38738699  0.46633848  0.39360938    -0.03300
Br679      Br  0.40143156  0.42146753  0.41595874    -0.03000
H680        H  0.34409168  0.49305737  0.41982683     0.09200
H681        H  0.41060409  0.01040335  0.33811725     0.07200
Br682      Br  0.36061600  0.08570174  0.34353658    -0.03400
C683        C  0.15861775  0.50567420  0.36791883    -0.10000
C684        C  0.14690536  0.53183929  0.38772757     0.06200
C685        C  0.10615665  0.52607056  0.39851454    -0.03800
C686        C  0.07822936  0.99604131  0.38891031    -0.08200
C687        C  0.08936022  0.97141006  0.36852674     0.05300
C688        C  0.13034194  0.97574940  0.35830228    -0.03300
Br689      Br  0.15018415  0.94058487  0.33190065    -0.03000
H690        H  0.18977847  0.50876840  0.35959106     0.09200
H691        H  0.04690934  0.99277318  0.39706025     0.07200
Br692      Br  0.08514304  0.55737737  0.42631209    -0.03400
C693        C  0.26583516  0.54012213  0.50641087    -0.10000
C694        C  0.24552205  0.53231651  0.48389993     0.06200
C695        C  0.22768165  0.99205068  0.47951344    -0.03800
C696        C  0.23042545  0.96068265  0.49753106    -0.08200
C697        C  0.25086169  0.96844060  0.52003776     0.05300
C698        C  0.26828581  0.50886208  0.52449801    -0.03300
Br699      Br  0.29277110  0.52457786  0.55545708    -0.03000
H700        H  0.27914470  0.57106198  0.51017662     0.09200
H701        H  0.21705052  0.92977197  0.49375088     0.07200
Br702      Br  0.20168267  0.97690432  0.44881883    -0.03400
C703        C  0.21551234  0.74314018  0.48541104    -0.10000
C704        C  0.25283994  0.71904938  0.48266992     0.06200
C705        C  0.28823374  0.72780904  0.49773339    -0.03800
C706        C  0.28554145  0.75984405  0.51538460    -0.08200
C707        C  0.24799737  0.78349296  0.51835697     0.05300
C708        C  0.21302985  0.77552747  0.50284175    -0.03300
Br709      Br  0.16266815  0.81006889  0.50322708    -0.03000
H710        H  0.18837104  0.73720089  0.47361310     0.09200
H711        H  0.31268726  0.76582519  0.52716966     0.07200
Br712      Br  0.33987845  0.69532625  0.49620647    -0.03400
C713        C  0.09309328  0.73468495  0.61246091    -0.10000
C714        C  0.09668850  0.72038522  0.63677659     0.06200
C715        C  0.13198573  0.73402379  0.65089210    -0.03800
C716        C  0.16074250  0.76337750  0.64107317    -0.08200
C717        C  0.15549790  0.77945428  0.61725365     0.05300
C718        C  0.12195388  0.76359546  0.60261686    -0.03300
Br719      Br  0.11387252  0.77874341  0.56877280    -0.03000
H720        H  0.06708642  0.72397372  0.60098098     0.09200
H721        H  0.18677371  0.77447441  0.65240993     0.07200
Br722      Br  0.14385852  0.71369845  0.68340042    -0.03400
C723        C  0.40833007  0.76409866  0.64441391    -0.10000
C724        C  0.41177518  0.72415198  0.63316389     0.06200
C725        C  0.38544461  0.71536360  0.61259696    -0.03800
C726        C  0.35721885  0.74629720  0.60388928    -0.08200
C727        C  0.35403449  0.78599886  0.61525740     0.05300
C728        C  0.38014259  0.79481324  0.63570358    -0.03300
Br729      Br  0.38149689  0.84915970  0.65162012    -0.03000
H730        H  0.42815570  0.77198615  0.66001014     0.09200
H731        H  0.33732253  0.73912887  0.58819115     0.07200
Br732      Br  0.38598915  0.66266875  0.59490097    -0.03400
C733        C  0.33802004  0.48765954  0.64057716    -0.10000
C734        C  0.34500751  0.96893825  0.61751085     0.06200
C735        C  0.38057453  0.98223614  0.60355566    -0.03800
C736        C  0.40926534  0.01131256  0.61336625    -0.08200
C737        C  0.40378604  0.52822226  0.63697040     0.05300
C738        C  0.36685045  0.51709775  0.65035880    -0.03300
Br739      Br  0.35297460  0.54147745  0.68165446    -0.03000
H740        H  0.31052711  0.47864443  0.65137850     0.09200
H741        H  0.43678347  0.01996205  0.60248204     0.07200
Br742      Br  0.39250630  0.96302948  0.57074993    -0.03400
C743        C  0.09792896  0.98893241  0.64691913    -0.10000
C744        C  0.08859970  0.52489815  0.63278892     0.06200
C745        C  0.10932406  0.53003279  0.60992787    -0.03800
C746        C  0.13815768  0.49927965  0.60179130    -0.08200
C747        C  0.14703345  0.96311145  0.61585856     0.05300
C748        C  0.12643259  0.95814675  0.63874675    -0.03300
Br749      Br  0.13282363  0.90918875  0.65940854    -0.03000
H750        H  0.08245903  0.98425122  0.66447284     0.09200
H751        H  0.15358951  0.50363670  0.58419678     0.07200
Br752      Br  0.09870525  0.57660505  0.58808117    -0.03400
C753        C  0.10872943  0.65447736  0.74283739    -0.10000
C754        C  0.09442368  0.61576669  0.73316875     0.06200
C755        C  0.11239628  0.57784357  0.74242987    -0.03800
C756        C  0.14359971  0.57955088  0.76086444    -0.08200
C757        C  0.15800863  0.61840163  0.77033840     0.05300
C758        C  0.13998272  0.65619605  0.76106977    -0.03300
Br759      Br  0.15445587  0.71153657  0.77316466    -0.03000
H760        H  0.09543222  0.68397652  0.73619349     0.09200
H761        H  0.15696431  0.55019693  0.76768187     0.07200
Br762      Br  0.09503726  0.52251400  0.73171673    -0.03400
C763        C  0.36048363  0.66728346  0.76196790    -0.10000
C764        C  0.34464179  0.62841047  0.77054886     0.06200
C765        C  0.36125925  0.59052308  0.76044318    -0.03800
C766        C  0.39300728  0.59233576  0.74252871    -0.08200
C767        C  0.40854127  0.63115013  0.73376459     0.05300
C768        C  0.39170491  0.66904586  0.74364746    -0.03300
Br769      Br  0.41046441  0.72437436  0.73380599    -0.03000
H770        H  0.34809959  0.69669802  0.76931775     0.09200
H771        H  0.40533726  0.56288680  0.73518109     0.07200
Br772      Br  0.34339820  0.53480592  0.77023140    -0.03400
C773        C  0.02596815  0.96317924  0.00608689    -0.10000
C774        C  0.50267901  0.96955005  0.98427176     0.06200
C775        C  0.48129600  0.00845168  0.98082860    -0.03800
C776        C  0.48246211  0.53932076  0.99927270    -0.08200
C777        C  0.50499872  0.53270377  0.02121635     0.05300
C778        C  0.02731499  0.49414367  0.02448620    -0.03300
Br779      Br  0.05732331  0.48011392  0.05413850    -0.03000
H780        H  0.04232269  0.93343398  0.00916449     0.09200
H781        H  0.46597026  0.56900351  0.99622857     0.07200
Br782      Br  0.45189081  0.02271211  0.95102897    -0.03400
C783        C  0.46581765  0.77438453  0.99713656    -0.06000
C784        C  0.50509629  0.78280282  0.98570712     0.06200
C785        C  0.04110077  0.75865855  0.99263362    -0.03800
C786        C  0.03702018  0.72719884  0.01047014    -0.08200
C787        C  0.49759161  0.71860387  0.02181755     0.05300
C788        C  0.46164187  0.74281055  0.01489067    -0.03300
Br789      Br  0.40533452  0.73428885  0.02783944    -0.03000
H790        H  0.43767098  0.79217928  0.99201871     0.09200
H791        H  0.06519306  0.70940929  0.01553078     0.07200
Br792      Br  0.09718635  0.76714118  0.97936654    -0.03400
C793        C  0.12933088  0.74361536  0.85050793    -0.10000
C794        C  0.15652292  0.72236773  0.86696115     0.06200
C795        C  0.15130004  0.72987475  0.89247360    -0.03800
C796        C  0.12173252  0.75982249  0.90057961    -0.08200
C797        C  0.09583688  0.78195688  0.88407540     0.05300
C798        C  0.09903516  0.77289959  0.85881987    -0.03300
Br799      Br  0.06533350  0.80164285  0.83461586    -0.03000
H800        H  0.13218914  0.73826286  0.83097041     0.09200
H801        H  0.11893111  0.76592098  0.92005717     0.07200
Br802      Br  0.18242078  0.70097303  0.91788178    -0.03400
C803        C  0.38166522  0.79040634  0.86743904    -0.10000
C804        C  0.39848577  0.78439473  0.89107616     0.06200
C805        C  0.38558662  0.74828031  0.90450430    -0.03800
C806        C  0.35714185  0.71923098  0.89396313    -0.08200
C807        C  0.34022139  0.72554092  0.87033403     0.05300
C808        C  0.35280792  0.76193694  0.85710921    -0.03300
Br809      Br  0.33316296  0.77511511  0.82457587    -0.03000
H810        H  0.39064234  0.81793880  0.85679621     0.09200
H811        H  0.34762169  0.69183304  0.90456640     0.07200
Br812      Br  0.40555215  0.73591679  0.93705402    -0.03400
C813        C  0.33622850  0.50559701  0.88973801    -0.10000
C814        C  0.34523337  0.52635802  0.86760507     0.06200
C815        C  0.38470598  0.51876726  0.85604106    -0.03800
C816        C  0.41313365  0.98924733  0.86603376    -0.08200
C817        C  0.40333472  0.96712633  0.88770978     0.05300
C818        C  0.36458917  0.97649747  0.89990120    -0.03300
Br819      Br  0.34759348  0.95207522  0.93072460    -0.03000
H820        H  0.30640445  0.51148969  0.89911966     0.09200
H821        H  0.44292219  0.98338818  0.85662823     0.07200
Br822      Br  0.40289736  0.54925781  0.82750332    -0.03400
C823        C  0.12128765  0.49518194  0.90447702    -0.10000
C824        C  0.10273732  0.96599030  0.88810219     0.06200
C825        C  0.11340255  0.96889644  0.86286785    -0.03800
C826        C  0.14278371  0.99915303  0.85498458    -0.08200
C827        C  0.16177029  0.52753294  0.87141059     0.05300
C828        C  0.15031525  0.52580333  0.89639794    -0.03300
Br829      Br  0.17522446  0.56219560  0.92071274    -0.03000
H830        H  0.11366947  0.49396447  0.92383890     0.09200
H831        H  0.15101546  0.00041348  0.83569252     0.07200
Br832      Br  0.09054317  0.93282337  0.83765465    -0.03400
O833        O  0.96985449  0.43035136  0.88766978    -0.86200
O834        O  0.55428988  0.40822300  0.88354621    -0.83300
C835        C  0.57381544  0.43276913  0.89797335     0.97300
O836        O  0.56976586  0.42821996  0.92083949    -0.83300
O837        O  0.53165962  0.40873643  0.96473208    -0.85900
C838        C  0.00131741  0.43498646  0.96598170     1.01800
O839        O  0.96902218  0.43050573  0.95248210    -0.78700
O840        O  0.92057770  0.40772314  0.91254566    -0.78900
C841        C  0.93308219  0.43401424  0.89672474     1.01700
O842        O  0.94600899  0.34216043  0.88562685    -0.86200
O843        O  0.53088774  0.32076014  0.88550577    -0.83300
C844        C  0.56796184  0.31570147  0.89385510     0.97300
O845        O  0.58214461  0.33968885  0.91058735    -0.83300
O846        O  0.53748169  0.32004767  0.95231735    -0.85900
C847        C  0.00677789  0.31692211  0.96706024     1.01700
O848        O  0.97669228  0.34348369  0.96618618    -0.78700
O849        O  0.93578206  0.32068191  0.92333410    -0.78900
C850        C  0.92873021  0.31682151  0.90067208     1.01700
Cr851      Cr  0.00034246  0.37535188  0.88806214     1.93700
Cr852      Cr  0.55156448  0.37417813  0.93595957     1.93200
Cr853      Cr  0.95421461  0.37554487  0.93738681     1.39100
O854        O  0.00218542  0.37484709  0.92044220    -1.24000
O855        O  0.71776976  0.17843485  0.87151044    -0.86200
O856        O  0.69840754  0.09366803  0.87039666    -0.83300
C857        C  0.69475142  0.05673627  0.86191166     0.97300
O858        O  0.71961097  0.04372410  0.84523015    -0.83300
O859        O  0.69725035  0.08757618  0.80345641    -0.85900
C860        C  0.69216966  0.11883072  0.78932988     1.01800
O861        O  0.71727095  0.15001930  0.79061815    -0.78700
O862        O  0.69452860  0.18863809  0.83425484    -0.78900
C863        C  0.69085240  0.19456265  0.85707677     1.01700
O864        O  0.80650013  0.15795137  0.86910951    -0.86200
O865        O  0.78698386  0.07307877  0.87221061    -0.83300
C866        C  0.81248205  0.05521066  0.85753731     0.97300
O867        O  0.80802779  0.05977295  0.83471367    -0.83300
O868        O  0.78560010  0.09735177  0.79104951    -0.85900
C869        C  0.81058838  0.12857773  0.78942838     1.01700
O870        O  0.80532214  0.16048231  0.80309832    -0.78700
O871        O  0.78248487  0.20660580  0.84422034    -0.78900
C872        C  0.80870948  0.19492182  0.86047214     1.01700
Cr873      Cr  0.75239662  0.12567269  0.86825745     1.93700
Cr874      Cr  0.75256613  0.07585158  0.81986371     1.93200
Cr875      Cr  0.75003935  0.17277098  0.81929389     1.39100
O876        O  0.75165833  0.12468001  0.83579453    -1.24000
O877        O  0.72031107  0.31881483  0.61779137    -0.86200
O878        O  0.80480998  0.34228070  0.62033706    -0.83300
C879        C  0.82348608  0.31754203  0.60561902     0.97300
O880        O  0.81696491  0.32051305  0.58285436    -0.83300
O881        O  0.77806798  0.34159175  0.53927904    -0.85900
C882        C  0.74671492  0.31674130  0.53734759     1.01800
O883        O  0.71481148  0.32045523  0.55123207    -0.78700
O884        O  0.66966473  0.33991696  0.59299622    -0.78900
C885        C  0.68366307  0.31390981  0.60866364     1.01700
O886        O  0.69546486  0.40587513  0.62060756    -0.86200
O887        O  0.77979329  0.42966591  0.61806852    -0.83300
C888        C  0.81646912  0.43446699  0.60897650     0.97300
O889        O  0.83021732  0.40831414  0.59333905    -0.83300
O890        O  0.78437941  0.42958970  0.55220746    -0.85900
C891        C  0.75235513  0.43408997  0.53848170     1.01700
O892        O  0.72173179  0.40823255  0.53958983    -0.78700
O893        O  0.68309343  0.42815046  0.58335898    -0.78900
C894        C  0.67692531  0.43102506  0.60614075     1.01700
Cr895      Cr  0.75007775  0.37415719  0.61672029     1.93700
Cr896      Cr  0.79866642  0.37494320  0.56810438     1.93200
Cr897      Cr  0.70105364  0.37420097  0.56806967     1.39100
O898        O  0.74991070  0.37425776  0.58424986    -1.24000
O899        O  0.53562502  0.17666803  0.63202839    -0.86200
O900        O  0.55374951  0.09200630  0.63417301    -0.83300
C901        C  0.55618864  0.05487972  0.64234999     0.97300
O902        O  0.53018083  0.04239086  0.65857996    -0.83300
O903        O  0.55421790  0.08598175  0.70005325    -0.85900
C904        C  0.56009110  0.11682950  0.71432274     1.01800
O905        O  0.53622000  0.14916818  0.71286724    -0.78700
O906        O  0.55827449  0.18715043  0.66940207    -0.78900
C907        C  0.56241779  0.19273139  0.64668008     1.01700
O908        O  0.94645089  0.15678723  0.63460833    -0.86200
O909        O  0.96449298  0.07218830  0.63204385    -0.83300
C910        C  0.93796510  0.05596042  0.64678464     0.97300
O911        O  0.94251557  0.06120351  0.66953397    -0.83300
O912        O  0.96639992  0.09825116  0.71306874    -0.85900
C913        C  0.94248263  0.13044611  0.71475677     1.01700
O914        O  0.94781051  0.16140389  0.70056085    -0.78700
O915        O  0.97007792  0.20601345  0.65922538    -0.78900
C916        C  0.94397917  0.19384603  0.64290083     1.01700
Cr917      Cr  0.50011986  0.12438606  0.63568543     1.93700
Cr918      Cr  0.49846166  0.07558728  0.68411351     1.93200
Cr919      Cr  0.50289252  0.17235412  0.68433335     1.39100
O920        O  0.50051089  0.12411392  0.66807708    -1.24000
O921        O  0.79868020  0.08849808  0.38265454    -0.86200
O922        O  0.71388515  0.06778943  0.38709091    -0.83300
C923        C  0.67699140  0.06520841  0.39617029     0.97300
O924        O  0.66484988  0.09248206  0.41156182    -0.83300
O925        O  0.71175788  0.07152994  0.45221977    -0.85900
C926        C  0.74419831  0.06646424  0.46552229     1.01800
O927        O  0.77550715  0.09150189  0.46385084    -0.78700
O928        O  0.81307503  0.06876278  0.42014200    -0.78900
C929        C  0.81818851  0.06452212  0.39733557     1.01700
O930        O  0.77717668  0.17621342  0.38357117    -0.86200
O931        O  0.69194327  0.15569095  0.38324289    -0.83300
C932        C  0.67469637  0.18185364  0.39768204     0.97300
O933        O  0.68188302  0.18001650  0.42040925    -0.83300
O934        O  0.72136350  0.15968493  0.46385464    -0.85900
C935        C  0.75305376  0.18425481  0.46474608     1.01700
O936        O  0.78435603  0.17895179  0.45059395    -0.78700
O937        O  0.82763516  0.15620939  0.40870697    -0.78900
C938        C  0.81452991  0.18035740  0.39173748     1.01700
Cr939      Cr  0.74547753  0.12216988  0.38665520     1.93700
Cr940      Cr  0.69872265  0.12581619  0.43579093     1.93200
Cr941      Cr  0.79634187  0.12389780  0.43464563     1.39100
O942        O  0.74694720  0.12415565  0.41905701    -1.24000
O943        O  0.94147131  0.40366498  0.36822625    -0.86200
O944        O  0.96227327  0.31918646  0.36969987    -0.83300
C945        C  0.93839045  0.30083659  0.35435126     0.97300
O946        O  0.94274403  0.30774421  0.33170154    -0.83300
O947        O  0.96616060  0.34949283  0.28939170    -0.85900
C948        C  0.94084505  0.38062202  0.28839777     1.01800
O949        O  0.94478415  0.41133736  0.30298732    -0.78700
O950        O  0.96573401  0.45468060  0.34508170    -0.78900
C951        C  0.93916007  0.44124551  0.36069322     1.01700
O952        O  0.53011145  0.42565822  0.37231357    -0.86200
O953        O  0.55065703  0.34156757  0.36917081    -0.83300
C954        C  0.55520547  0.30525296  0.36007027     0.97300
O955        O  0.53086680  0.29309602  0.34294277    -0.83300
O956        O  0.55414367  0.34056050  0.30267023    -0.85900
C957        C  0.55820427  0.37239550  0.28888268     1.01700
O958        O  0.53281897  0.40319276  0.29087976    -0.78700
O959        O  0.55412863  0.43803679  0.33529985    -0.78900
C960        C  0.55701251  0.44279217  0.35816750     1.01700
Cr961      Cr  0.49620986  0.37259340  0.36740208     1.93700
Cr962      Cr  0.49847953  0.32637365  0.31795504     1.93200
Cr963      Cr  0.49930083  0.42316860  0.31977469     1.39100
O964        O  0.49786620  0.37393438  0.33503189    -1.24000
O965        O  0.94379455  0.09138824  0.12170216    -0.86200
O966        O  0.52839177  0.06884467  0.11983401    -0.83300
C967        C  0.56565875  0.06550711  0.11139646     0.97300
O968        O  0.57920581  0.09235352  0.09605663    -0.83300
O969        O  0.53557533  0.07121296  0.05432561    -0.85900
C970        C  0.00463370  0.06644359  0.04008410     1.01800
O971        O  0.97307559  0.09142044  0.04118634    -0.78700
O972        O  0.93295044  0.06986314  0.08419503    -0.78900
C973        C  0.92763286  0.06519196  0.10696161     1.01700
O974        O  0.96715921  0.17843359  0.12049746    -0.86200
O975        O  0.55175530  0.15663273  0.12333059    -0.83300
C976        C  0.56891514  0.18303732  0.10898606     0.97300
O977        O  0.56284722  0.17996898  0.08623852    -0.83300
O978        O  0.52685446  0.15876719  0.04195335    -0.85900
C979        C  0.99596676  0.18414793  0.04032040     1.01700
O980        O  0.96407323  0.17948175  0.05402674    -0.78700
O981        O  0.91746556  0.15868450  0.09449997    -0.78900
C982        C  0.93082182  0.18351054  0.11106504     1.01700
Cr983      Cr  0.99791077  0.12381082  0.11890116     1.93700
Cr984      Cr  0.54748410  0.12557489  0.07081491     1.93200
Cr985      Cr  0.95038533  0.12476967  0.06974121     1.39100
O986        O  0.99856039  0.12472645  0.08646787    -1.24000
O987        O  0.71441742  0.31965717  0.13441372    -0.86200
O988        O  0.69087029  0.40394881  0.13622123    -0.83300
C989        C  0.68835182  0.44139320  0.14419340     0.97300
O990        O  0.71475637  0.45493845  0.15978624    -0.83300
O991        O  0.69604766  0.41023850  0.20206440    -0.85900
C992        C  0.69357570  0.37909373  0.21656183     1.01800
O993        O  0.71965035  0.34876800  0.21476703    -0.78700
O994        O  0.69598904  0.30787708  0.17241764    -0.78900
C995        C  0.69021954  0.30196699  0.14981037     1.01700
O996        O  0.80210644  0.34368096  0.13395853    -0.86200
O997        O  0.77876433  0.42733152  0.13131426    -0.83300
C998        C  0.80613109  0.44446483  0.14501166     0.97300
O999        O  0.80345466  0.44017728  0.16800046    -0.83300
O1000       O  0.78468792  0.40428414  0.21267159    -0.85900
C1001       C  0.81133993  0.37442950  0.21370078     1.01700
O1002       O  0.80725171  0.34244831  0.20009019    -0.78700
O1003       O  0.78415246  0.29459624  0.16034965    -0.78900
C1004       C  0.80822238  0.30773004  0.14339272     1.01700
Cr1005     Cr  0.74660604  0.37368476  0.13645107     1.93700
Cr1006     Cr  0.74964840  0.42378548  0.18443424     1.93200
Cr1007     Cr  0.75154757  0.32703989  0.18562285     1.39100
O1008       O  0.74909806  0.37478963  0.16883768    -1.24000
C1009       C  0.60270416  0.21853766  0.14482709    -0.10000
C1010       C  0.59760862  0.21597050  0.11918198     0.06200
C1011       C  0.62139065  0.24374922  0.10419975    -0.03800
C1012       C  0.64993645  0.27195544  0.11491627    -0.08200
C1013       C  0.65640215  0.27339100  0.14044368     0.05300
C1014       C  0.63173394  0.24659026  0.15554463    -0.03300
Br1015     Br  0.63656802  0.24479159  0.19068987    -0.03000
H1016       H  0.58463417  0.19789318  0.15677259     0.09200
H1017       H  0.66793562  0.29248062  0.10286630     0.07200
Br1018     Br  0.61870792  0.24488103  0.06893342    -0.03400
C1019       C  0.86266531  0.25281006  0.15197295    -0.10000
C1020       C  0.84294098  0.27959978  0.13477463     0.06200
C1021       C  0.85489270  0.27643059  0.10987005    -0.03800
C1022       C  0.88395397  0.24515287  0.10257309    -0.08200
C1023       C  0.90277416  0.21786681  0.11975366     0.05300
C1024       C  0.89279841  0.22266540  0.14475614    -0.03300
Br1025     Br  0.91701427  0.18695276  0.16959855    -0.03000
H1026       H  0.85417244  0.25494641  0.17120406     0.09200
H1027       H  0.89180792  0.24195033  0.08329892     0.07200
Br1028     Br  0.83105806  0.31183949  0.08475873    -0.03400
C1029       C  0.87343510  0.50892398  0.10025563    -0.10000
C1030       C  0.90022180  0.03075973  0.11651387     0.06200
C1031       C  0.89880388  0.02024060  0.14173693    -0.03800
C1032       C  0.86873833  0.99132972  0.15023532    -0.08200
C1033       C  0.83994320  0.47154981  0.13425602     0.05300
C1034       C  0.84377658  0.47933688  0.10871523    -0.03300
Br1035     Br  0.81021995  0.45160651  0.08390836    -0.03000
H1036       H  0.87477154  0.51554998  0.08077699     0.09200
H1037       H  0.86764609  0.98479696  0.16972360     0.07200
Br1038     Br  0.93683600  0.04301200  0.16606605    -0.03400
C1039       C  0.63930159  0.04005038  0.11757811    -0.10000
C1040       C  0.59544190  0.03210562  0.11997192     0.06200
C1041       C  0.58223246  0.49269539  0.12973567    -0.03800
C1042       C  0.61285313  0.46247190  0.13663837    -0.08200
C1043       C  0.65650793  0.47122554  0.13452678     0.05300
C1044       C  0.66956308  0.01042162  0.12488603    -0.03300
Br1045     Br  0.72852019  0.02516257  0.12079108    -0.03000
H1046       H  0.65042864  0.06990606  0.11021258     0.09200
H1047       H  0.60258472  0.43253204  0.14429176     0.07200
Br1048     Br  0.52342878  0.47763958  0.13373285    -0.03400
C1049       C  0.63013672  0.35120799  0.27405479    -0.10000
C1050       C  0.59234534  0.37394003  0.27010395     0.06200
C1051       C  0.58846693  0.39848896  0.24849918    -0.03800
C1052       C  0.62219902  0.40040900  0.23181529    -0.08200
C1053       C  0.65998684  0.37766807  0.23570089     0.05300
C1054       C  0.66378319  0.35279592  0.25723334    -0.03300
Br1055     Br  0.71429561  0.32151098  0.26569666    -0.03000
H1056       H  0.63388031  0.33251064  0.29060465     0.09200
H1057       H  0.61825763  0.41897423  0.21523301     0.07200
Br1058     Br  0.53714389  0.42783880  0.23940296    -0.03400
C1059       C  0.83717190  0.39790414  0.25427930    -0.10000
C1060       C  0.84551546  0.37661803  0.23214450     0.06200
C1061       C  0.88595581  0.35841449  0.22832919    -0.03800
C1062       C  0.91652766  0.36054694  0.24686885    -0.08200
C1063       C  0.90786799  0.38106644  0.26921008     0.05300
C1064       C  0.86780007  0.40028745  0.27276131    -0.03300
Br1065     Br  0.85161856  0.42775314  0.30283356    -0.03000
H1066       H  0.80618627  0.41201598  0.25749793     0.09200
H1067       H  0.94751122  0.34640789  0.24367638     0.07200
Br1068     Br  0.90241696  0.33259473  0.19786050    -0.03400
C1069       C  0.59102558  0.23545958  0.35851615    -0.10000
C1070       C  0.58762744  0.27539103  0.36977679     0.06200
C1071       C  0.61406784  0.28441585  0.39020200    -0.03800
C1072       C  0.64197625  0.25339482  0.39904869    -0.08200
C1073       C  0.64485813  0.21357202  0.38778145     0.05300
C1074       C  0.61905473  0.20478035  0.36721165    -0.03300
Br1075     Br  0.61791308  0.15075735  0.35085684    -0.03000
H1076       H  0.57124891  0.22748231  0.34292053     0.09200
H1077       H  0.66189853  0.26060789  0.41470969     0.07200
Br1078     Br  0.61458030  0.33778719  0.40717793    -0.03400
C1079       C  0.88540440  0.21502300  0.39202836    -0.10000
C1080       C  0.84466560  0.21222775  0.38136900     0.06200
C1081       C  0.83525906  0.23886306  0.36111872    -0.03800
C1082       C  0.86631093  0.26707922  0.35228255    -0.08200
C1083       C  0.90665034  0.26983888  0.36333305     0.05300
C1084       C  0.91608055  0.24303652  0.38327254    -0.03300
Br1085     Br  0.97127100  0.24070343  0.39857474    -0.03000
H1086       H  0.89402757  0.19488689  0.40729904     0.09200
H1087       H  0.85866351  0.28745082  0.33693459     0.07200
Br1088     Br  0.78127326  0.23897987  0.34447974    -0.03400
C1089       C  0.85824217  0.99685498  0.40188401    -0.10000
C1090       C  0.84813502  0.03243086  0.38756214     0.06200
C1091       C  0.86775569  0.03704563  0.36435113    -0.03800
C1092       C  0.89606958  0.50625630  0.35593925    -0.08200
C1093       C  0.90644913  0.47079548  0.37024737     0.05300
C1094       C  0.88721329  0.96628761  0.39358615    -0.03300
Br1095     Br  0.90109200  0.92129862  0.41588985    -0.03000
H1096       H  0.84390540  0.99298169  0.41980676     0.09200
H1097       H  0.91072706  0.51060939  0.33813452     0.07200
Br1098     Br  0.86088156  0.58599605  0.34365897    -0.03400
C1099       C  0.65871292  0.00560881  0.36804277    -0.10000
C1100       C  0.64696252  0.03180161  0.38783128     0.06200
C1101       C  0.60620906  0.02603101  0.39861086    -0.03800
C1102       C  0.57826246  0.49606767  0.38889265    -0.08200
C1103       C  0.58946433  0.47135976  0.36855514     0.05300
C1104       C  0.63048700  0.47563664  0.35837874    -0.03300
Br1105     Br  0.65040863  0.44035001  0.33205186    -0.03000
H1106       H  0.68988305  0.00869936  0.35972628     0.09200
H1107       H  0.54690543  0.49284745  0.39700205     0.07200
Br1108     Br  0.58514931  0.05736553  0.42638672    -0.03400
C1109       C  0.76575448  0.04009555  0.50648889    -0.10000
C1110       C  0.74546141  0.03228776  0.48397290     0.06200
C1111       C  0.72760762  0.49202052  0.47957829    -0.03800
C1112       C  0.73032326  0.46066922  0.49760551    -0.08200
C1113       C  0.75075536  0.46843728  0.52011160     0.05300
C1114       C  0.76818458  0.00883840  0.52457715    -0.03300
Br1115     Br  0.79259986  0.02456641  0.55555246    -0.03000
H1116       H  0.77905876  0.07103641  0.51025848     0.09200
H1117       H  0.71693132  0.42976327  0.49383298     0.07200
Br1118     Br  0.70158170  0.47686912  0.44889223    -0.03400
C1119       C  0.71549358  0.24314247  0.48547532    -0.10000
C1120       C  0.75279247  0.21899354  0.48278243     0.06200
C1121       C  0.78814586  0.22769373  0.49788778    -0.03800
C1122       C  0.78545046  0.25975158  0.51552375    -0.08200
C1123       C  0.74793778  0.28346788  0.51844134     0.05300
C1124       C  0.71300550  0.27554368  0.50289493    -0.03300
Br1125     Br  0.66269309  0.31015706  0.50322785    -0.03000
H1126       H  0.68838323  0.23723852  0.47364795     0.09200
H1127       H  0.81256351  0.26569761  0.52733990     0.07200
Br1128     Br  0.83972310  0.19509488  0.49643880    -0.03400
C1129       C  0.59318869  0.23455644  0.61252153    -0.10000
C1130       C  0.59670722  0.22036434  0.63686281     0.06200
C1131       C  0.63194872  0.23408080  0.65099962    -0.03800
C1132       C  0.66071085  0.26342080  0.64117427    -0.08200
C1133       C  0.65552472  0.27940247  0.61732978     0.05300
C1134       C  0.62205673  0.26345139  0.60267297    -0.03300
Br1135     Br  0.61410362  0.27845491  0.56879776    -0.03000
H1136       H  0.56723571  0.22377494  0.60102335     0.09200
H1137       H  0.68669178  0.27459079  0.65252537     0.07200
Br1138     Br  0.64373152  0.21389963  0.68354936    -0.03400
C1139       C  0.90829895  0.26407066  0.64440262    -0.10000
C1140       C  0.91175250  0.22414176  0.63313342     0.06200
C1141       C  0.88541266  0.21536388  0.61256998    -0.03800
C1142       C  0.85717256  0.24629749  0.60388090    -0.08200
C1143       C  0.85398630  0.28598452  0.61526615     0.05300
C1144       C  0.88009876  0.29478432  0.63571158    -0.03300
Br1145     Br  0.88144472  0.34910872  0.65165458    -0.03000
H1146       H  0.92812842  0.27194613  0.65999929     0.09200
H1147       H  0.83726952  0.23914212  0.58818351     0.07200
Br1148     Br  0.88596636  0.16268803  0.59485513    -0.03400
C1149       C  0.83803579  0.98763958  0.64061241    -0.10000
C1150       C  0.84494875  0.46893552  0.61753428     0.06200
C1151       C  0.88045958  0.48227328  0.60354590    -0.03800
C1152       C  0.90915703  0.51136193  0.61333543    -0.08200
C1153       C  0.90377621  0.02823307  0.63696218     0.05300
C1154       C  0.86687619  0.01708370  0.65037756    -0.03300
Br1155     Br  0.85306248  0.04142728  0.68169191    -0.03000
H1156       H  0.81057314  0.97860337  0.65143343     0.09200
H1157       H  0.93663153  0.52004527  0.60242404     0.07200
Br1158     Br  0.89231073  0.46309039  0.57072574    -0.03400
C1159       C  0.59793025  0.48893520  0.64700214    -0.10000
C1160       C  0.58864330  0.02493731  0.63288212     0.06200
C1161       C  0.60942307  0.03010595  0.61003886    -0.03800
C1162       C  0.63822667  0.99933183  0.60189057    -0.08200
C1163       C  0.64702583  0.46309611  0.61594502     0.05300
C1164       C  0.62642872  0.45814235  0.63883448    -0.03300
Br1165     Br  0.63281844  0.40919199  0.65950272    -0.03000
H1166       H  0.58245352  0.48426098  0.66455449     0.09200
H1167       H  0.65369373  0.00370989  0.58430789     0.07200
Br1168     Br  0.59894698  0.07677141  0.58823607    -0.03400
C1169       C  0.60859908  0.15452656  0.74297254    -0.10000
C1170       C  0.59440478  0.11582214  0.73323653     0.06200
C1171       C  0.61254191  0.07790761  0.74240857    -0.03800
C1172       C  0.64376883  0.07961648  0.76082967    -0.08200
C1173       C  0.65805735  0.11845922  0.77037126     0.05300
C1174       C  0.63988954  0.15624484  0.76118582    -0.03300
Br1175     Br  0.65422739  0.21155649  0.77337616    -0.03000
H1176       H  0.59519125  0.18402070  0.73639514     0.09200
H1177       H  0.65725609  0.05027090  0.76757951     0.07200
Br1178     Br  0.59542285  0.02257159  0.73157753    -0.03400
C1179       C  0.86059787  0.16733745  0.76197800    -0.10000
C1180       C  0.84472365  0.12846639  0.77054573     0.06200
C1181       C  0.86130826  0.09057931  0.76041954    -0.03800
C1182       C  0.89303988  0.09238948  0.74249431    -0.08200
C1183       C  0.90859594  0.13120073  0.73373947     0.05300
C1184       C  0.89180867  0.16909666  0.74364912    -0.03300
Br1185     Br  0.91064058  0.22441606  0.73383713    -0.03000
H1186       H  0.84825027  0.19675348  0.76934593     0.09200
H1187       H  0.90534041  0.06294023  0.73513075     0.07200
Br1188     Br  0.84342530  0.03486103  0.77019145    -0.03400
C1189       C  0.52585108  0.46323004  0.00607477    -0.10000
C1190       C  0.00294514  0.46960836  0.98431922     0.06200
C1191       C  0.98162432  0.50853699  0.98085976    -0.03800
C1192       C  0.98280703  0.03937867  0.99920619    -0.08200
C1193       C  0.00524440  0.03272237  0.02117925     0.05300
C1194       C  0.52694909  0.99404532  0.02446682    -0.03300
Br1195     Br  0.55685715  0.97997541  0.05414597    -0.03000
H1196       H  0.54229376  0.43352455  0.00912483     0.09200
H1197       H  0.96640823  0.06910324  0.99613263     0.07200
Br1198     Br  0.95227415  0.52281688  0.95104577    -0.03400
C1199       C  0.96590713  0.27443393  0.99719853    -0.06000
C1200       C  0.00515960  0.28281272  0.98573167     0.06200
C1201       C  0.54101365  0.25862017  0.99259522    -0.03800
C1202       C  0.53688727  0.22712598  0.01040994    -0.08200
C1203       C  0.99770067  0.21861146  0.02183089     0.05300
C1204       C  0.96175305  0.24285626  0.01494841    -0.03300
Br1205     Br  0.90547620  0.23438999  0.02795412    -0.03000
H1206       H  0.93776407  0.29226304  0.99211441     0.09200
H1207       H  0.56504236  0.20931230  0.01547423     0.07200
Br1208     Br  0.59711960  0.26709226  0.97935553    -0.03400
C1209       C  0.62935660  0.24360909  0.85053755    -0.10000
C1210       C  0.65665272  0.22248243  0.86698533     0.06200
C1211       C  0.65154401  0.23012359  0.89249286    -0.03800
C1212       C  0.62195222  0.26005199  0.90059211    -0.08200
C1213       C  0.59593661  0.28205480  0.88409083     0.05300
C1214       C  0.59905003  0.27288646  0.85884425    -0.03300
Br1215     Br  0.56521222  0.30145996  0.83463536    -0.03000
H1216       H  0.63213298  0.23815942  0.83100516     0.09200
H1217       H  0.61923054  0.26624234  0.92006419     0.07200
Br1218     Br  0.68287850  0.20146683  0.91790803    -0.03400
C1219       C  0.88164182  0.29051321  0.86750833    -0.10000
C1220       C  0.89840641  0.28452464  0.89116102     0.06200
C1221       C  0.88549359  0.24841164  0.90458562    -0.03800
C1222       C  0.85710500  0.21933233  0.89402235    -0.08200
C1223       C  0.84025143  0.22561374  0.87037512     0.05300
C1224       C  0.85284046  0.26201447  0.85715615    -0.03300
Br1225     Br  0.83328025  0.27515726  0.82460049    -0.03000
H1226       H  0.89062842  0.31804423  0.85686677     0.09200
H1227       H  0.84757194  0.19193526  0.90462261     0.07200
Br1228     Br  0.90535674  0.23609419  0.93716151    -0.03400
C1229       C  0.83636694  0.00576164  0.88981091    -0.10000
C1230       C  0.84532193  0.02642868  0.86763995     0.06200
C1231       C  0.88475796  0.01875892  0.85605004    -0.03800
C1232       C  0.91322428  0.48930560  0.86610378    -0.08200
C1233       C  0.90344654  0.46727714  0.88781335     0.05300
C1234       C  0.86474415  0.47673565  0.90002422    -0.03300
Br1235     Br  0.84782672  0.45248258  0.93090685    -0.03000
H1236       H  0.80658298  0.01172367  0.89921950     0.09200
H1237       H  0.94298912  0.48338492  0.85668621     0.07200
Br1238     Br  0.90292092  0.04914235  0.82746815    -0.03400
C1239       C  0.62113780  0.99533569  0.90443807    -0.10000
C1240       C  0.60278117  0.46600874  0.88808182     0.06200
C1241       C  0.61352812  0.46883266  0.86285519    -0.03800
C1242       C  0.64292475  0.49907272  0.85496780    -0.08200
C1243       C  0.66179497  0.02759452  0.87140476     0.05300
C1244       C  0.65016449  0.02597401  0.89637030    -0.03300
Br1245     Br  0.67480142  0.06256107  0.92067934    -0.03000
H1246       H  0.61338693  0.99420205  0.92378436     0.09200
H1247       H  0.65120952  0.50027603  0.83568200     0.07200
Br1248     Br  0.59077433  0.43265537  0.83766024    -0.03400
O1249       O  0.96984800  0.93032136  0.88764484    -0.86200
O1250       O  0.55428842  0.90821745  0.88352534    -0.83300
C1251       C  0.57381203  0.93275432  0.89795870     0.97300
O1252       O  0.56977275  0.92818027  0.92082382    -0.83300
O1253       O  0.53163551  0.90870183  0.96470688    -0.85900
C1254       C  0.00129198  0.93495035  0.96595431     1.01800
O1255       O  0.96900173  0.93046762  0.95245073    -0.78700
O1256       O  0.92056730  0.90767257  0.91250984    -0.78900
C1257       C  0.93307085  0.93397372  0.89669422     1.01700
O1258       O  0.94603258  0.84211462  0.88559487    -0.86200
O1259       O  0.53091933  0.82074701  0.88546754    -0.83300
C1260       C  0.56798467  0.81567655  0.89382739     0.97300
O1261       O  0.58215529  0.83963764  0.91057592    -0.83300
O1262       O  0.53747182  0.82000835  0.95230388    -0.85900
C1263       C  0.00676158  0.81689302  0.96705023     1.01700
O1264       O  0.97667059  0.84344768  0.96616394    -0.78700
O1265       O  0.93579180  0.82063694  0.92330199    -0.78900
C1266       C  0.92875097  0.81677408  0.90063896     1.01700
Cr1267     Cr  0.00035387  0.87532867  0.88803659     1.93700
Cr1268     Cr  0.55155975  0.87413649  0.93594094     1.93200
Cr1269     Cr  0.95420681  0.87550264  0.93735611     1.39100
O1270       O  0.00218691  0.87480921  0.92041796    -1.24000
O1271       O  0.71775825  0.67841162  0.87147688    -0.86200
O1272       O  0.69840543  0.59363766  0.87037034    -0.83300
C1273       C  0.69476748  0.55669807  0.86189383     0.97300
O1274       O  0.71963212  0.54368195  0.84521627    -0.83300
O1275       O  0.69728055  0.58751298  0.80343252    -0.85900
C1276       C  0.69220634  0.61876285  0.78930159     1.01800
O1277       O  0.71730886  0.64995021  0.79058976    -0.78700
O1278       O  0.69452858  0.68858637  0.83421589    -0.78900
C1279       C  0.69083709  0.69451711  0.85703661     1.01700
O1280       O  0.80649127  0.65792354  0.86909150    -0.86200
O1281       O  0.78697548  0.57305973  0.87220247    -0.83300
C1282       C  0.81248938  0.55519717  0.85753660     0.97300
O1283       O  0.80804751  0.55974699  0.83471154    -0.83300
O1284       O  0.78563357  0.59729791  0.79103950    -0.85900
C1285       C  0.81062095  0.62852458  0.78942220     1.01700
O1286       O  0.80534617  0.66043122  0.80308900    -0.78700
O1287       O  0.78248124  0.70657127  0.84419695    -0.78900
C1288       C  0.80870583  0.69488969  0.86044957     1.01700
Cr1289     Cr  0.75238908  0.62564719  0.86823694     1.93700
Cr1290     Cr  0.75259064  0.57580435  0.81985047     1.93200
Cr1291     Cr  0.75005266  0.67272188  0.81926877     1.39100
O1292       O  0.75166661  0.62463884  0.83577489    -1.24000
O1293       O  0.72030271  0.81882159  0.61779477    -0.86200
O1294       O  0.80481109  0.84227846  0.62034638    -0.83300
C1295       C  0.82348845  0.81753803  0.60562963     0.97300
O1296       O  0.81697282  0.82050735  0.58286457    -0.83300
O1297       O  0.77808321  0.84156792  0.53928560    -0.85900
C1298       C  0.74673070  0.81671516  0.53735685     1.01800
O1299       O  0.71482591  0.82043934  0.55124057    -0.78700
O1300       O  0.66966649  0.83993622  0.59299862    -0.78900
C1301       C  0.68365313  0.81392547  0.60866644     1.01700
O1302       O  0.69547303  0.90589130  0.62060307    -0.86200
O1303       O  0.77980642  0.92966666  0.61807079    -0.83300
C1304       C  0.81648240  0.93446679  0.60897844     0.97300
O1305       O  0.83022866  0.90831383  0.59334007    -0.83300
O1306       O  0.78439581  0.92957461  0.55220349    -0.85900
C1307       C  0.75237215  0.93407291  0.53847694     1.01700
O1308       O  0.72175164  0.90821270  0.53958412    -0.78700
O1309       O  0.68310395  0.92815914  0.58335192    -0.78900
C1310       C  0.67693363  0.93103869  0.60613413     1.01700
Cr1311     Cr  0.75008176  0.87416151  0.61672262     1.93700
Cr1312     Cr  0.79867888  0.87493305  0.56810792     1.93200
Cr1313     Cr  0.70106639  0.87419884  0.56806900     1.39100
O1314       O  0.74992100  0.87425698  0.58425191    -1.24000
O1315       O  0.53562682  0.67665186  0.63202430    -0.86200
O1316       O  0.55374312  0.59198626  0.63416447    -0.83300
C1317       C  0.55617307  0.55485662  0.64233784     0.97300
O1318       O  0.53015787  0.54236430  0.65856196    -0.83300
O1319       O  0.55422833  0.58593264  0.70003505    -0.85900
C1320       C  0.56011231  0.61677688  0.71430555     1.01800
O1321       O  0.53624642  0.64912094  0.71285654    -0.78700
O1322       O  0.55828561  0.68712779  0.66939708    -0.78900
C1323       C  0.56241916  0.69271783  0.64667535     1.01700
O1324       O  0.94644981  0.65677973  0.63460826    -0.86200
O1325       O  0.96448076  0.57218086  0.63203637    -0.83300
C1326       C  0.93795208  0.55595627  0.64677813     0.97300
O1327       O  0.94250608  0.56119779  0.66952720    -0.83300
O1328       O  0.96642541  0.59821555  0.71306388    -0.85900
C1329       C  0.94250773  0.63040811  0.71475545     1.01700
O1330       O  0.94782982  0.66136761  0.70056079    -0.78700
O1331       O  0.97007984  0.70599504  0.65923166    -0.78900
C1332       C  0.94397669  0.69383384  0.64290761     1.01700
Cr1333     Cr  0.50011830  0.62437168  0.63568004     1.93700
Cr1334     Cr  0.49846324  0.57555874  0.68410265     1.93200
Cr1335     Cr  0.50290806  0.67232444  0.68433140     1.39100
O1336       O  0.50051765  0.62409048  0.66807088    -1.24000
O1337       O  0.79869478  0.58849337  0.38263412    -0.86200
O1338       O  0.71389466  0.56778628  0.38706636    -0.83300
C1339       C  0.67699963  0.56520740  0.39614437     0.97300
O1340       O  0.66486647  0.59247052  0.41154498    -0.83300
O1341       O  0.71177832  0.57151203  0.45220229    -0.85900
C1342       C  0.74421715  0.56644821  0.46550649     1.01800
O1343       O  0.77552793  0.59148276  0.46383353    -0.78700
O1344       O  0.81308954  0.56875075  0.42012102    -0.78900
C1345       C  0.81820927  0.56452007  0.39731443     1.01700
O1346       O  0.77718800  0.67620860  0.38356078    -0.86200
O1347       O  0.69195643  0.65568959  0.38323034    -0.83300
C1348       C  0.67471382  0.68185014  0.39767271     0.97300
O1349       O  0.68190312  0.68000590  0.42039942    -0.83300
O1350       O  0.72138785  0.65966336  0.46384321    -0.85900
C1351       C  0.75307971  0.68423182  0.46473921     1.01700
O1352       O  0.78437891  0.67893422  0.45058363    -0.78700
O1353       O  0.82764975  0.65619090  0.40869087    -0.78900
C1354       C  0.81454318  0.68034368  0.39172453     1.01700
Cr1355     Cr  0.74549056  0.62216522  0.38663856     1.93700
Cr1356     Cr  0.69874226  0.62580075  0.43577660     1.93200
Cr1357     Cr  0.79635947  0.62388132  0.43462923     1.39100
O1358       O  0.74696379  0.62414197  0.41904117    -1.24000
O1359       O  0.94146591  0.90365798  0.36825896    -0.86200
O1360       O  0.96228436  0.81918896  0.36971267    -0.83300
C1361       C  0.93840898  0.80083395  0.35436357     0.97300
O1362       O  0.94276196  0.80774742  0.33171425    -0.83300
O1363       O  0.96616089  0.84953294  0.28941337    -0.85900
C1364       C  0.94084157  0.88065975  0.28842337     1.01800
O1365       O  0.94477647  0.91136832  0.30301803    -0.78700
O1366       O  0.96571862  0.95468726  0.34512141    -0.78900
C1367       C  0.93914210  0.94123860  0.36072739     1.01700
O1368       O  0.53010035  0.92566169  0.37234604    -0.86200
O1369       O  0.55065891  0.84157372  0.36919109    -0.83300
C1370       C  0.55521819  0.80526656  0.36008123     0.97300
O1371       O  0.53088634  0.79311734  0.34294914    -0.83300
O1372       O  0.55415281  0.84061246  0.30268772    -0.85900
C1373       C  0.55820905  0.87245580  0.28890625     1.01700
O1374       O  0.53281430  0.90324412  0.29090716    -0.78700
O1375       O  0.55411326  0.93806275  0.33533420    -0.78900
C1376       C  0.55700169  0.94280073  0.35820274     1.01700
Cr1377     Cr  0.49620698  0.87259727  0.36742441     1.93700
Cr1378     Cr  0.49849232  0.82640135  0.31796892     1.93200
Cr1379     Cr  0.49929030  0.92319563  0.31980538     1.39100
O1380       O  0.49786486  0.87395336  0.33505435    -1.24000
O1381       O  0.94377883  0.59139843  0.12172647    -0.86200
O1382       O  0.52839642  0.56883802  0.11986383    -0.83300
C1383       C  0.56566873  0.56551301  0.11143305     0.97300
O1384       O  0.57922570  0.59237476  0.09610568    -0.83300
O1385       O  0.53563081  0.57125549  0.05436077    -0.85900
C1386       C  0.00466985  0.56647473  0.04011686     1.01800
O1387       O  0.97310880  0.59144743  0.04121617    -0.78700
O1388       O  0.93296987  0.56987008  0.08421713    -0.78900
C1389       C  0.92763767  0.56519654  0.10698250     1.01700
O1390       O  0.96713468  0.67844194  0.12053113    -0.86200
O1391       O  0.55174329  0.65663146  0.12338708    -0.83300
C1392       C  0.56890322  0.68305804  0.10905578     0.97300
O1393       O  0.56288095  0.67998938  0.08630402    -0.83300
O1394       O  0.52690973  0.65882274  0.04200488    -0.85900
C1395       C  0.99598381  0.68417892  0.04035702     1.01700
O1396       O  0.96408290  0.67950206  0.05405722    -0.78700
O1397       O  0.91745883  0.65868598  0.09452407    -0.78900
C1398       C  0.93079967  0.68350990  0.11109420     1.01700
Cr1399     Cr  0.99789279  0.62382418  0.11893646     1.93700
Cr1400     Cr  0.54752250  0.62560852  0.07086417     1.93200
Cr1401     Cr  0.95039875  0.62478456  0.06976864     1.39100
O1402       O  0.99856474  0.62475031  0.08650353    -1.24000
O1403       O  0.71438507  0.81965482  0.13445433    -0.86200
O1404       O  0.69085927  0.90395611  0.13623547    -0.83300
C1405       C  0.68834285  0.94140751  0.14419638     0.97300
O1406       O  0.71475027  0.95496674  0.15978406    -0.83300
O1407       O  0.69605302  0.91029436  0.20207902    -0.85900
C1408       C  0.69359061  0.87916297  0.21658700     1.01800
O1409       O  0.71967474  0.84884485  0.21480004    -0.78700
O1410       O  0.69598034  0.80792808  0.17247032    -0.78900
C1411       C  0.69020036  0.80198659  0.14986708     1.01700
O1412       O  0.80208140  0.84366815  0.13397902    -0.86200
O1413       O  0.77876135  0.92732008  0.13131314    -0.83300
C1414       C  0.80612575  0.94446998  0.14500633     0.97300
O1415       O  0.80344904  0.94020425  0.16799629    -0.83300
O1416       O  0.78470303  0.90434484  0.21267751    -0.85900
C1417       C  0.81135301  0.87448733  0.21371231     1.01700
O1418       O  0.80726144  0.84250043  0.20010678    -0.78700
O1419       O  0.78412978  0.79461006  0.16038651    -0.78900
C1420       C  0.80819210  0.80772304  0.14342077     1.01700
Cr1421     Cr  0.74658922  0.87368290  0.13646944     1.93700
Cr1422     Cr  0.74964941  0.92382804  0.18443891     1.93200
Cr1423     Cr  0.75154857  0.82708660  0.18565605     1.39100
O1424       O  0.74909438  0.87481951  0.16885577    -1.24000
C1425       C  0.60307665  0.71817636  0.14490094    -0.10000
C1426       C  0.59756430  0.71600364  0.11927187     0.06200
C1427       C  0.62091087  0.74418945  0.10431551    -0.03800
C1428       C  0.64946619  0.77238978  0.11503193    -0.08200
C1429       C  0.65636176  0.77342112  0.14052671     0.05300
C1430       C  0.63211913  0.74621914  0.15561227    -0.03300
Br1431     Br  0.63765187  0.74378597  0.19071000    -0.03000
H1432       H  0.58535907  0.69720763  0.15683135     0.09200
H1433       H  0.66712398  0.79324879  0.10300651     0.07200
Br1434     Br  0.61754602  0.74596567  0.06907811    -0.03400
C1435       C  0.86262615  0.75279479  0.15200071    -0.10000
C1436       C  0.84289711  0.77957887  0.13480141     0.06200
C1437       C  0.85483814  0.77639983  0.10989552    -0.03800
C1438       C  0.88390425  0.74512689  0.10259948    -0.08200
C1439       C  0.90273747  0.71785359  0.11978188     0.05300
C1440       C  0.89276256  0.72265330  0.14478448    -0.03300
Br1441     Br  0.91698578  0.68694851  0.16962847    -0.03000
H1442       H  0.85413775  0.75493572  0.17123205     0.09200
H1443       H  0.89175325  0.74191964  0.08332519     0.07200
Br1444     Br  0.83098340  0.81178826  0.08478078    -0.03400
C1445       C  0.87343258  0.00891173  0.10024190    -0.10000
C1446       C  0.90023101  0.53075776  0.11652946     0.06200
C1447       C  0.89882010  0.52022309  0.14175051    -0.03800
C1448       C  0.86875138  0.49131311  0.15024657    -0.08200
C1449       C  0.83993749  0.97155138  0.13424624     0.05300
C1450       C  0.84377650  0.97932387  0.10870460    -0.03300
Br1451     Br  0.81023260  0.95156877  0.08390150    -0.03000
H1452       H  0.87477402  0.01552477  0.08076203     0.09200
H1453       H  0.86766338  0.48476777  0.16973364     0.07200
Br1454     Br  0.93687186  0.54296789  0.16607763    -0.03400
C1455       C  0.63930735  0.54010661  0.11766935    -0.10000
C1456       C  0.59544909  0.53211105  0.12000411     0.06200
C1457       C  0.58222436  0.99274184  0.12977509    -0.03800
C1458       C  0.61284143  0.96252237  0.13668922    -0.08200
C1459       C  0.65649659  0.97122840  0.13451941     0.05300
C1460       C  0.66957103  0.51047260  0.12496395    -0.03300
Br1461     Br  0.72852708  0.52528336  0.12094198    -0.03000
H1462       H  0.65042935  0.57000412  0.11035810     0.09200
H1463       H  0.60257193  0.93262496  0.14439760     0.07200
Br1464     Br  0.52342324  0.97774991  0.13386511    -0.03400
C1465       C  0.63012624  0.85124244  0.27406701    -0.10000
C1466       C  0.59235660  0.87401753  0.27013076     0.06200
C1467       C  0.58850478  0.89861368  0.24854207    -0.03800
C1468       C  0.62223933  0.90053121  0.23185935    -0.08200
C1469       C  0.66000366  0.87774267  0.23572889     0.05300
C1470       C  0.66377380  0.85282643  0.25724651    -0.03300
Br1471     Br  0.71424419  0.82145803  0.26569082    -0.03000
H1472       H  0.63385055  0.83250716  0.29060396     0.09200
H1473       H  0.61831586  0.91913264  0.21528926     0.07200
Br1474     Br  0.53721468  0.92803611  0.23946276    -0.03400
C1475       C  0.83719490  0.89799856  0.25428286    -0.10000
C1476       C  0.84552659  0.87667533  0.23215835     0.06200
C1477       C  0.88594913  0.85842162  0.22835912    -0.03800
C1478       C  0.91651525  0.86055168  0.24690163    -0.08200
C1479       C  0.90786763  0.88110942  0.26923270     0.05300
C1480       C  0.86781583  0.90037294  0.27276961    -0.03300
Br1481     Br  0.85164077  0.92788608  0.30282855    -0.03000
H1482       H  0.80622178  0.91214465  0.25749106     0.09200
H1483       H  0.94748508  0.84637618  0.24371937     0.07200
Br1484     Br  0.90239683  0.83252157  0.19791078    -0.03400
C1485       C  0.59102056  0.73546283  0.35852603    -0.10000
C1486       C  0.58764411  0.77540117  0.36978143     0.06200
C1487       C  0.61411086  0.78442964  0.39019461    -0.03800
C1488       C  0.64201809  0.75340380  0.39903798    -0.08200
C1489       C  0.64487654  0.71357407  0.38777664     0.05300
C1490       C  0.61905182  0.70478070  0.36721627    -0.03300
Br1491     Br  0.61788601  0.65075177  0.35086861    -0.03000
H1492       H  0.57122559  0.72748231  0.34293882     0.09200
H1493       H  0.66195960  0.76061904  0.41469040     0.07200
Br1494     Br  0.61466895  0.83781676  0.40715305    -0.03400
C1495       C  0.88533607  0.71515570  0.39210701    -0.10000
C1496       C  0.84467608  0.71221859  0.38136356     0.06200
C1497       C  0.83535209  0.73870908  0.36103810    -0.03800
C1498       C  0.86640441  0.76693525  0.35221521    -0.08200
C1499       C  0.90666825  0.76983556  0.36334577     0.05300
C1500       C  0.91601972  0.74316565  0.38335899    -0.03300
Br1501     Br  0.97111582  0.74099008  0.39878317    -0.03000
H1502       H  0.89389315  0.69513138  0.40743926     0.09200
H1503       H  0.85881806  0.78719514  0.33680790     0.07200
Br1504     Br  0.78149718  0.73857587  0.34425969    -0.03400
C1505       C  0.85827601  0.49686219  0.40185835    -0.10000
C1506       C  0.84816976  0.53244288  0.38754091     0.06200
C1507       C  0.86780724  0.53707786  0.36433616    -0.03800
C1508       C  0.89602082  0.00622324  0.35595934    -0.08200
C1509       C  0.90641309  0.97077565  0.37027506     0.05300
C1510       C  0.88725214  0.46630202  0.39355892    -0.03300
Br1511     Br  0.90114746  0.42131984  0.41586405    -0.03000
H1512       H  0.84393528  0.49297992  0.41977943     0.09200
H1513       H  0.91067104  0.01056554  0.33815179     0.07200
Br1514     Br  0.86079976  0.08593361  0.34365326    -0.03400
C1515       C  0.65872714  0.50559577  0.36802032    -0.10000
C1516       C  0.64696124  0.53181332  0.38779547     0.06200
C1517       C  0.60618685  0.52607381  0.39855499    -0.03800
C1518       C  0.57828227  0.99602582  0.38895034    -0.08200
C1519       C  0.58946231  0.97135201  0.36859478     0.05300
C1520       C  0.63047056  0.97565252  0.35840232    -0.03300
Br1521     Br  0.65036904  0.94041101  0.33204926    -0.03000
H1522       H  0.68991125  0.50866313  0.35971813     0.09200
H1523       H  0.54693867  0.99278424  0.39707386     0.07200
Br1524     Br  0.58509306  0.55745102  0.42630600    -0.03400
C1525       C  0.76576762  0.54009471  0.50647735    -0.10000
C1526       C  0.74547450  0.53228006  0.48396207     0.06200
C1527       C  0.72760394  0.99202568  0.47958277    -0.03800
C1528       C  0.73033267  0.96066432  0.49760380    -0.08200
C1529       C  0.75076598  0.96842579  0.52011035     0.05300
C1530       C  0.76818734  0.50884668  0.52457136    -0.03300
Br1531     Br  0.79261051  0.52458328  0.55554314    -0.03000
H1532       H  0.77908037  0.57103378  0.51024170     0.09200
H1533       H  0.71694776  0.92975691  0.49382668     0.07200
Br1534     Br  0.70157045  0.97688613  0.44889675    -0.03400
C1535       C  0.71549075  0.74306085  0.48550902    -0.10000
C1536       C  0.75281724  0.71896486  0.48278289     0.06200
C1537       C  0.78819301  0.72771216  0.49786285    -0.03800
C1538       C  0.78549317  0.75976593  0.51550292    -0.08200
C1539       C  0.74795390  0.78343233  0.51845180     0.05300
C1540       C  0.71299594  0.77545484  0.50293307    -0.03300
Br1541     Br  0.66262751  0.80998543  0.50330625    -0.03000
H1542       H  0.68836002  0.73712191  0.47370309     0.09200
H1543       H  0.81262660  0.76574860  0.52729729     0.07200
Br1544     Br  0.83981304  0.69518443  0.49637462    -0.03400
C1545       C  0.59311773  0.73463380  0.61253508    -0.10000
C1546       C  0.59669345  0.72036817  0.63685834     0.06200
C1547       C  0.63197475  0.73402949  0.65097935    -0.03800
C1548       C  0.66073300  0.76337631  0.64115620    -0.08200
C1549       C  0.65550012  0.77942424  0.61732952     0.05300
C1550       C  0.62197643  0.76353938  0.60268853    -0.03300
Br1551     Br  0.61391698  0.77865045  0.56883738    -0.03000
H1552       H  0.56712497  0.72390277  0.60105064     0.09200
H1553       H  0.68675086  0.77449621  0.65249577     0.07200
Br1554     Br  0.64381717  0.71375558  0.68350222    -0.03400
C1555       C  0.90834633  0.76408777  0.64438909    -0.10000
C1556       C  0.91174608  0.72413211  0.63314541     0.06200
C1557       C  0.88534851  0.71532849  0.61260971    -0.03800
C1558       C  0.85711393  0.74626543  0.60391894    -0.08200
C1559       C  0.85398385  0.78597844  0.61527790     0.05300
C1560       C  0.88014587  0.79480218  0.63569806    -0.03300
Br1561     Br  0.88155473  0.84915947  0.65160070    -0.03000
H1562       H  0.92821869  0.77198366  0.65996420     0.09200
H1563       H  0.83716787  0.73909173  0.58824235     0.07200
Br1564     Br  0.88579964  0.66260592  0.59494032    -0.03400
C1565       C  0.83802952  0.48762673  0.64061382    -0.10000
C1566       C  0.84496410  0.96893578  0.61753685     0.06200
C1567       C  0.88048348  0.98226486  0.60355252    -0.03800
C1568       C  0.90918251  0.01135121  0.61334380    -0.08200
C1569       C  0.90376050  0.52823207  0.63695736     0.05300
C1570       C  0.86687142  0.51706850  0.65037886    -0.03300
Br1571     Br  0.85307762  0.54138091  0.68170429    -0.03000
H1572       H  0.81057524  0.47857956  0.65143863     0.09200
H1573       H  0.93666411  0.02002642  0.60243599     0.07200
Br1574     Br  0.89234050  0.96307847  0.57073392    -0.03400
C1575       C  0.59792603  0.98893738  0.64699704    -0.10000
C1576       C  0.58862774  0.52491590  0.63287521     0.06200
C1577       C  0.60938800  0.53006820  0.61002605    -0.03800
C1578       C  0.63820048  0.49929963  0.60188481    -0.08200
C1579       C  0.64703198  0.96311072  0.61593957     0.05300
C1580       C  0.62642050  0.95814368  0.63882408    -0.03300
Br1581     Br  0.63278801  0.90917407  0.65947911    -0.03000
H1582       H  0.58243778  0.98424889  0.66454471     0.09200
H1583       H  0.65365355  0.50366520  0.58429710     0.07200
Br1584     Br  0.59886042  0.57669478  0.58820370    -0.03400
C1585       C  0.60867421  0.65446606  0.74292399    -0.10000
C1586       C  0.59443437  0.61576135  0.73321263     0.06200
C1587       C  0.61253249  0.57784248  0.74240326    -0.03800
C1588       C  0.64376606  0.57954824  0.76082110    -0.08200
C1589       C  0.65809779  0.61839235  0.77034042     0.05300
C1590       C  0.63997044  0.65618215  0.76113310    -0.03300
Br1591     Br  0.65437000  0.71150375  0.77328472    -0.03000
H1592       H  0.59529662  0.68396295  0.73633026     0.09200
H1593       H  0.65722096  0.55019922  0.76758731     0.07200
Br1594     Br  0.59534172  0.52250955  0.73160479    -0.03400
C1595       C  0.86061723  0.66728871  0.76197132    -0.10000
C1596       C  0.84476119  0.62841523  0.77054529     0.06200
C1597       C  0.86136251  0.59052917  0.76042791    -0.03800
C1598       C  0.89309240  0.59234341  0.74250272    -0.08200
C1599       C  0.90862803  0.63115759  0.73374006     0.05300
C1600       C  0.89182502  0.66905189  0.74364221    -0.03300
Br1601     Br  0.91062422  0.72437561  0.73381727    -0.03000
H1602       H  0.84825464  0.69670318  0.76933286     0.09200
H1603       H  0.90540554  0.56289541  0.73514461     0.07200
Br1604     Br  0.84350212  0.53480917  0.77021051    -0.03400
C1605       C  0.52574769  0.96316439  0.00606426    -0.10000
C1606       C  0.00291024  0.96957161  0.98429153     0.06200
C1607       C  0.98163096  0.00851826  0.98081629    -0.03800
C1608       C  0.98280669  0.53939456  0.99925028    -0.08200
C1609       C  0.00528979  0.53275642  0.02120956     0.05300
C1610       C  0.52706658  0.49411216  0.02447674    -0.03300
Br1611     Br  0.55706530  0.48006841  0.05413009    -0.03000
H1612       H  0.54215463  0.93344310  0.00912677     0.09200
H1613       H  0.96637253  0.56910331  0.99618786     0.07200
Br1614     Br  0.95235535  0.02281420  0.95098057    -0.03400
C1615       C  0.96589641  0.77441178  0.99719889    -0.06000
C1616       C  0.00515120  0.78280544  0.98573779     0.06200
C1617       C  0.54103510  0.75865951  0.99262614    -0.03800
C1618       C  0.53692276  0.72718409  0.01045414    -0.08200
C1619       C  0.99771107  0.71863722  0.02186177     0.05300
C1620       C  0.96175197  0.74285120  0.01496127    -0.03300
Br1621     Br  0.90547271  0.73436043  0.02795853    -0.03000
H1622       H  0.93774465  0.79221473  0.99209987     0.09200
H1623       H  0.56508923  0.70940093  0.01553354     0.07200
Br1624     Br  0.59714568  0.76717436  0.97940290    -0.03400
C1625       C  0.62949704  0.74374846  0.85047958    -0.10000
C1626       C  0.65662686  0.72243322  0.86693634     0.06200
C1627       C  0.65136232  0.72989750  0.89245076    -0.03800
C1628       C  0.62180322  0.75985444  0.90055838    -0.08200
C1629       C  0.59595619  0.78203969  0.88405202     0.05300
C1630       C  0.59921166  0.77304264  0.85879151    -0.03300
Br1631     Br  0.56560258  0.80188164  0.83458352    -0.03000
H1632       H  0.63239562  0.73843949  0.83094035     0.09200
H1633       H  0.61896109  0.76591070  0.92003859     0.07200
Br1634     Br  0.68240229  0.70090953  0.91785877    -0.03400
C1635       C  0.88166926  0.79046001  0.86747308    -0.10000
C1636       C  0.89843064  0.78447498  0.89112688     0.06200
C1637       C  0.88550935  0.74836834  0.90455481    -0.03800
C1638       C  0.85711067  0.71929558  0.89399521    -0.08200
C1639       C  0.84025580  0.72557657  0.87034835     0.05300
C1640       C  0.85285766  0.76196717  0.85712457    -0.03300
Br1641     Br  0.83329986  0.77510242  0.82456762    -0.03000
H1642       H  0.89066386  0.81798507  0.85682866     0.09200
H1643       H  0.84757069  0.69190402  0.90459825     0.07200
Br1644     Br  0.90537294  0.73604981  0.93713069    -0.03400
C1645       C  0.83636989  0.50577583  0.88982197    -0.10000
C1646       C  0.84533237  0.52643527  0.86764990     0.06200
C1647       C  0.88477791  0.51877735  0.85606907    -0.03800
C1648       C  0.91320132  0.98927211  0.86607540    -0.08200
C1649       C  0.90343215  0.96724059  0.88778560     0.05300
C1650       C  0.86473939  0.97670824  0.90000431    -0.03300
Br1651     Br  0.84784051  0.95245706  0.93089043    -0.03000
H1652       H  0.80657733  0.51173039  0.89922326     0.09200
H1653       H  0.94295886  0.98334519  0.85665155     0.07200
Br1654     Br  0.90294729  0.54915232  0.82748571    -0.03400
C1655       C  0.62121740  0.49529071  0.90444398    -0.10000
C1656       C  0.60276020  0.96601874  0.88807471     0.06200
C1657       C  0.61354328  0.96883669  0.86285332    -0.03800
C1658       C  0.64293563  0.99908808  0.85497488    -0.08200
C1659       C  0.66182707  0.52755375  0.87139537     0.05300
C1660       C  0.65025559  0.52590929  0.89636839    -0.03300
Br1661     Br  0.67500398  0.56242682  0.92067475    -0.03000
H1662       H  0.61350732  0.49414230  0.92379532     0.09200
H1663       H  0.65125270  0.00027816  0.83569346     0.07200
Br1664     Br  0.59084759  0.93263429  0.83765387    -0.03400
loop_ 
_geom_bond_atom_site_label_1 
_geom_bond_atom_site_label_2 
_geom_bond_distance 
_geom_bond_site_symmetry_2 
_ccdc_geom_bond_type 
O1          Cr19   1.983       .  S
O1            C9   1.261       .  A
O2         Cr851   2.001       .  S
O2            C3   1.263       .  A
C3            O4   1.262       .  A
C3          C408   1.491       .  S
O4          Cr20   1.981       .  S
O5          Cr20   2.010       .  S
O5          C838   1.267       .  A
C6            O7   1.261       .  A
C6          O837   1.267       .  A
C6          C358   1.482       .  S
O7          Cr21   1.976       .  S
O8          Cr21   1.996       .  S
O8            C9   1.261       .  A
C9          C401   1.485       .  S
O10         Cr19   2.007       .  S
O10          C18   1.269       .  A
O11        Cr851   1.976       .  S
O11          C12   1.260       .  A
C12          O13   1.267       .  A
C12         C381   1.477       .  S
O13         Cr20   2.004       .  S
O14         Cr20   1.979       .  S
O14         C847   1.259       .  A
C15          O16   1.263       .  A
C15         O846   1.259       .  A
C15         C368   1.484       .  S
O16         Cr21   1.998       .  S
O17         Cr21   1.981       .  S
O17          C18   1.261       .  A
C18         C388   1.489       .  S
Cr19        O834   2.001       .  S
Cr19        O843   1.976       .  S
Cr19         O22   1.767       .  S
Cr20        O854   1.767       .  S
Cr21         O22   1.767       .  S
O22        Cr852   1.767       .  S
O23         Cr41   1.997       .  S
O23          C31   1.262       .  A
O24         Cr41   1.977       .  S
O24          C25   1.260       .  A
C25          O26   1.266       .  A
C25         C411   1.479       .  S
O26         Cr42   2.004       .  S
O27         Cr42   1.988       .  S
O27          C28   1.263       .  A
C28          O29   1.264       .  A
C28         C341   1.488       .  S
O29         Cr43   2.005       .  S
O30         Cr43   1.987       .  S
O30          C31   1.264       .  A
C31         C378   1.490       .  S
O32         Cr41   1.982       .  S
O32          C40   1.261       .  A
O33         Cr41   1.996       .  S
O33          C34   1.264       .  A
C34          O35   1.261       .  A
C34         C398   1.480       .  S
O35         Cr42   1.986       .  S
O36         Cr42   2.002       .  S
O36          C37   1.264       .  A
C37          O38   1.264       .  A
C37         C348   1.486       .  S
O38         Cr43   1.985       .  S
O39         Cr43   2.007       .  S
O39          C40   1.264       .  A
C40         C391   1.488       .  S
Cr41         O44   1.771       .  S
Cr42         O44   1.770       .  S
Cr43         O44   1.767       .  S
O45         Cr63   1.984       .  S
O45          C53   1.263       .  A
O46         Cr63   2.000       .  S
O46          C47   1.264       .  A
C47          O48   1.262       .  A
C47         C311   1.479       .  S
O48         Cr64   1.983       .  S
O49         Cr64   1.999       .  S
O49          C50   1.264       .  A
C50          O51   1.261       .  A
C50         C291   1.472       .  S
O51         Cr65   1.977       .  S
O52         Cr65   1.999       .  S
O52          C53   1.264       .  A
C53         C301   1.481       .  S
O54         Cr63   1.996       .  S
O54          C62   1.262       .  A
O55         Cr63   1.988       .  S
O55          C56   1.263       .  A
C56          O57   1.263       .  A
C56         C318   1.484       .  S
O57         Cr64   1.996       .  S
O58         Cr64   1.983       .  S
O58          C59   1.261       .  A
C59          O60   1.263       .  A
C59         C281   1.478       .  S
O60         Cr65   1.998       .  S
O61         Cr65   1.978       .  S
O61          C62   1.260       .  A
C62         C331   1.480       .  S
Cr63         O66   1.771       .  S
Cr64         O66   1.766       .  S
Cr65         O66   1.769       .  S
O67         Cr85   2.003       .  S
O67          C75   1.266       .  A
O68         Cr85   1.970       .  S
O68          C69   1.257       .  A
C69          O70   1.267       .  A
C69         C328   1.482       .  S
O70         Cr86   2.006   1_455  S
O71         Cr86   1.982   1_455  S
O71          C72   1.260       .  A
C72          O73   1.269       .  A
C72         C338   1.491       .  S
O73         Cr87   2.013       .  S
O74         Cr87   1.976       .  S
O74          C75   1.258       .  A
C75         C298   1.486       .  S
O76        Cr917   1.971       .  S
O76          C84   1.257       .  A
O77        Cr917   2.002       .  S
O77          C78   1.266       .  A
C78          O79   1.260       .  A
C78         C321   1.485       .  S
O79        Cr918   1.981       .  S
O80        Cr918   2.007       .  S
O80          C81   1.267       .  A
C81          O82   1.259       .  A
C81         C351   1.484       .  S
O82        Cr919   1.975       .  S
O83        Cr919   2.015       .  S
O83          C84   1.269       .  A
C84         C308   1.491       .  S
Cr85        O908   1.971   1_455  S
Cr85        O909   2.002   1_455  S
Cr85         O88   1.766       .  S
Cr86        O911   1.980       .  S
Cr86        O912   2.007       .  S
Cr86         O88   1.766   1_655  S
Cr87        O914   1.975   1_455  S
Cr87        O915   2.014   1_455  S
Cr87         O88   1.764       .  S
O89        Cr107   1.991       .  S
O89          C97   1.261       .  A
O90        Cr107   1.984       .  S
O90          C91   1.262       .  A
C91          O92   1.261       .  A
C91         C268   1.487       .  S
O92        Cr108   1.996       .  S
O93        Cr108   1.978       .  S
O93          C94   1.260       .  A
C94          O95   1.265       .  A
C94         C278   1.477       .  S
O95        Cr109   2.004       .  S
O96        Cr109   1.982       .  S
O96          C97   1.261       .  A
C97         C258   1.481       .  S
O98        Cr107   1.984       .  S
O98         C106   1.261       .  A
O99        Cr107   1.994       .  S
O99         C100   1.263       .  A
C100        O101   1.261       .  A
C100        C241   1.474       .  S
O101       Cr108   1.978       .  S
O102       Cr108   1.998       .  S
O102        C103   1.263       .  A
C103        O104   1.260       .  A
C103        C288   1.473       .  S
O104       Cr109   1.979       .  S
O105       Cr109   2.003       .  S
O105        C106   1.268       .  A
C106        C248   1.494       .  S
Cr107       O110   1.768       .  S
Cr108       O110   1.768       .  S
Cr109       O110   1.768       .  S
O111       Cr961   1.976       .  S
O111        C119   1.258       .  A
O112       Cr961   1.999       .  S
O112        C113   1.264       .  A
C113        O114   1.262       .  A
C113        C251   1.481       .  S
O114       Cr962   1.990       .  S
O115       Cr962   1.998       .  S
O115        C116   1.265       .  A
C116        O117   1.260       .  A
C116        C231   1.471       .  S
O117       Cr963   1.971       .  S
O118       Cr963   2.002       .  S
O118        C119   1.266       .  A
C119        C261   1.481       .  S
O120       Cr129   2.004   1_455  S
O120        C128   1.266       .  A
O121       Cr129   1.972   1_455  S
O121        C122   1.258       .  A
C122        O123   1.266       .  A
C122        C238   1.485       .  S
O123       Cr130   1.998   1_455  S
O124       Cr130   1.988   1_455  S
O124        C125   1.263       .  A
C125        O126   1.262       .  A
C125        C218   1.483       .  S
O126       Cr131   1.996   1_455  S
O127       Cr131   1.975   1_455  S
O127        C128   1.259       .  A
C128        C271   1.474       .  S
Cr129       O943   1.976       .  S
Cr129       O944   1.999       .  S
Cr129       O132   1.767       .  S
Cr130       O946   1.990       .  S
Cr130       O947   1.997       .  S
Cr130       O132   1.767       .  S
Cr131       O949   1.972       .  S
Cr131       O950   2.002       .  S
Cr131       O132   1.765       .  S
O133       Cr151   1.990       .  S
O133        C141   1.260       .  A
O134       Cr983   1.989   1_455  S
O134        C135   1.261       .  A
C135        O136   1.265       .  A
C135        C208   1.485       .  S
O136       Cr152   1.996       .  S
O137       Cr152   1.974       .  S
O137        C970   1.260       .  A
C138        O139   1.267       .  A
C138        O969   1.260       .  A
C138        C361   1.482       .  S
O139       Cr153   2.009       .  S
O140       Cr153   1.983       .  S
O140        C141   1.261       .  A
C141        C198   1.482       .  S
O142       Cr151   1.977       .  S
O142        C150   1.261       .  A
O143       Cr983   2.002   1_455  S
O143        C144   1.265       .  A
C144        O145   1.259       .  A
C144        C178   1.485       .  S
O145       Cr152   1.972       .  S
O146       Cr152   1.999       .  S
O146        C979   1.264   1_455  A
C147        O148   1.258       .  A
C147        O978   1.264       .  A
C147        C371   1.486       .  S
O148       Cr153   1.977       .  S
O149       Cr153   2.009       .  S
O149        C150   1.267       .  A
C150        C191   1.475       .  S
Cr151       O966   1.988       .  S
Cr151       O975   2.001       .  S
Cr151       O154   1.769       .  S
Cr152       O986   1.762   1_455  S
Cr153       O154   1.766       .  S
O154       Cr984   1.761       .  S
O155       Cr173   1.987       .  S
O155        C163   1.263       .  A
O156       Cr173   1.992       .  S
O156        C157   1.262       .  A
C157        O158   1.262       .  A
C157        C211   1.470       .  S
O158       Cr174   1.995       .  S
O159       Cr174   1.985       .  S
O159        C160   1.265       .  A
C160        O161   1.263       .  A
C160        C221   1.484       .  S
O161       Cr175   1.999       .  S
O162       Cr175   1.982       .  S
O162        C163   1.260       .  A
C163        C181   1.485       .  S
O164       Cr173   1.986       .  S
O164        C172   1.261       .  A
O165       Cr173   1.993       .  S
O165        C166   1.261       .  A
C166        O167   1.264       .  A
C166        C201   1.485       .  S
O167       Cr174   1.981       .  S
O168       Cr174   1.990       .  S
O168        C169   1.261       .  A
C169        O170   1.260       .  A
C169        C228   1.471       .  S
O170       Cr175   1.979       .  S
O171       Cr175   1.998       .  S
O171        C172   1.264       .  A
C172        C188   1.480       .  S
Cr173       O176   1.768       .  S
Cr174       O176   1.766       .  S
Cr175       O176   1.766       .  S
C177        C178   1.410       .  A
C177        C182   1.399       .  A
C177        H184   1.083       .  S
C178        C179   1.413       .  A
C179        C180   1.392       .  A
C179       Br186   1.925       .  S
C180        C181   1.407       .  A
C180        H185   1.083       .  S
C181        C182   1.413       .  A
C182       Br183   1.923       .  S
C187        C188   1.406       .  A
C187        C192   1.398       .  A
C187        H194   1.084       .  S
C188        C189   1.412       .  A
C189        C190   1.401       .  A
C189       Br196   1.920       .  S
C190        C191   1.404       .  A
C190        H195   1.084       .  S
C191        C192   1.407       .  A
C192       Br193   1.920       .  S
C197        C202   1.398       .  A
C197        C614   1.404       .  A
C197        H204   1.083       .  S
C198        C199   1.416       .  A
C198        C613   1.404       .  A
C199        C200   1.393   1_545  A
C199       Br206   1.924       .  S
C200        C617   1.403       .  A
C200        H205   1.083       .  S
C201        C202   1.419       .  A
C201        C616   1.403       .  A
C202       Br203   1.925       .  S
C207        C208   1.406       .  A
C207        C212   1.391       .  A
C207        H214   1.083       .  S
C208        C625   1.416   1_545  A
C209        C210   1.405       .  A
C209        C624   1.416       .  A
C209       Br216   1.919       .  S
C210        C211   1.403       .  A
C210        H215   1.083       .  S
C211        C628   1.406       .  A
C212        C627   1.406   1_545  A
C212       Br213   1.921       .  S
C217        C218   1.403       .  A
C217        C222   1.400       .  A
C217        H224   1.085       .  S
C218        C219   1.416       .  A
C219        C220   1.397       .  A
C219       Br226   1.923       .  S
C220        C221   1.402       .  A
C220        H225   1.085       .  S
C221        C222   1.418       .  A
C222       Br223   1.924       .  S
C227        C228   1.405       .  A
C227        C232   1.395       .  A
C227        H234   1.084       .  S
C228        C229   1.408       .  A
C229        C230   1.395       .  A
C229       Br236   1.921       .  S
C230        C231   1.406       .  A
C230        H235   1.084       .  S
C231        C232   1.409       .  A
C232       Br233   1.922       .  S
C237        C238   1.406       .  A
C237        C242   1.392       .  A
C237        H244   1.083       .  S
C238        C239   1.418       .  A
C239        C240   1.400       .  A
C239       Br246   1.923       .  S
C240        C241   1.402       .  A
C240        H245   1.083       .  S
C241        C242   1.411       .  A
C242       Br243   1.925       .  S
C247        C248   1.407       .  A
C247        C252   1.393       .  A
C247        H254   1.082       .  S
C248        C249   1.420       .  A
C249        C250   1.407       .  A
C249       Br256   1.922       .  S
C250        C251   1.405       .  A
C250        H255   1.083       .  S
C251        C252   1.410       .  A
C252       Br253   1.924       .  S
C257        C258   1.405   1_565  A
C257        C262   1.401       .  A
C257        H264   1.083       .  S
C258        C259   1.415       .  A
C259        C676   1.393       .  A
C259       Br682   1.926       .  S
C260        C261   1.403       .  A
C260        C675   1.393       .  A
C260        H265   1.083       .  S
C261        C678   1.414       .  A
C262        C677   1.414       .  A
C262       Br263   1.921       .  S
Br266       C675   1.926       .  S
C267        C268   1.408       .  A
C267        C688   1.399   1_545  A
C267        H274   1.083       .  S
C268        C269   1.420       .  A
C269        C686   1.395   1_545  A
C269       Br276   1.925       .  S
C270        C271   1.400       .  A
C270        C685   1.395       .  A
C270        H275   1.084       .  S
C271        C272   1.409       .  A
C272        C683   1.399       .  A
C272       Br273   1.921       .  S
C277        C278   1.405       .  A
C277        C282   1.398       .  A
C277        H284   1.083       .  S
C278        C695   1.411   1_545  A
C279        C280   1.398       .  A
C279        C694   1.411       .  A
C279       Br286   1.922       .  S
C280        C281   1.406       .  A
C280        H285   1.083       .  S
C281        C698   1.410       .  A
C282        C697   1.410   1_545  A
C282       Br283   1.920       .  S
C287        C288   1.404       .  A
C287        C292   1.398       .  A
C287        H294   1.084       .  S
C288        C289   1.409       .  A
C289        C290   1.398       .  A
C289       Br296   1.919       .  S
C290        C291   1.404       .  A
C290        H295   1.084       .  S
C291        C292   1.408       .  A
C292       Br293   1.920       .  S
C297        C298   1.406       .  A
C297        C302   1.395       .  A
C297        H304   1.083       .  S
C298        C299   1.416       .  A
C299        C300   1.401       .  A
C299       Br306   1.922       .  S
C300        C301   1.405       .  A
C300        H305   1.083       .  S
C301        C302   1.413       .  A
C302       Br303   1.924       .  S
C307        C308   1.407       .  A
C307        C312   1.396       .  A
C307        H314   1.083       .  S
C308        C309   1.420       .  A
C309        C310   1.401       .  A
C309       Br316   1.923       .  S
C310        C311   1.402       .  A
C310        H315   1.083       .  S
C311        C312   1.411       .  A
C312       Br313   1.923       .  S
C317        C322   1.403   1_565  A
C317        C734   1.407       .  A
C317        H324   1.083       .  S
C318        C319   1.415       .  A
C318        C733   1.406       .  A
C319        C320   1.393       .  A
C319       Br326   1.925       .  S
C320        C737   1.404       .  A
C320        H325   1.083       .  S
C321        C322   1.415       .  A
C321        C736   1.404       .  A
C322       Br323   1.921       .  S
C327        C332   1.394       .  A
C327        C744   1.404       .  A
C327        H334   1.084       .  S
C328        C329   1.416       .  A
C328        C743   1.404   1_545  A
C329        C330   1.399   1_545  A
C329       Br336   1.922       .  S
C330        C747   1.405       .  A
C330        H335   1.084   1_565  S
C331        C332   1.414       .  A
C331        C746   1.405       .  A
C332       Br333   1.924       .  S
C337        C338   1.405       .  A
C337        C342   1.398       .  A
C337        H344   1.083       .  S
C338        C339   1.417       .  A
C339        C340   1.404       .  A
C339       Br346   1.922       .  S
C340        C341   1.406       .  A
C340        H345   1.083       .  S
C341        C342   1.414       .  A
C342       Br343   1.923       .  S
C347        C348   1.406       .  A
C347        C352   1.401       .  A
C347        H354   1.083       .  S
C348        C349   1.416       .  A
C349        C350   1.397       .  A
C349       Br356   1.923       .  S
C350        C351   1.404       .  A
C350        H355   1.084       .  S
C351        C352   1.414       .  A
C352       Br353   1.922       .  S
C357       C1190   1.406   1_554  A
C357        C778   1.399       .  A
C357        H364   1.083       .  S
C358        C359   1.412       .  A
C358       C1189   1.406   1_556  A
C359        C776   1.398       .  A
C359       Br366   1.922       .  S
C360        C361   1.406   1_556  A
C360        C775   1.398       .  A
C360        H365   1.083       .  S
C361       C1194   1.413   1_545  A
C362        C773   1.399       .  A
C362       C1193   1.413   1_565  A
C362       Br363   1.923       .  S
C367        C368   1.407       .  A
C367        C372   1.397   1_556  A
C367        H374   1.083       .  S
C368       C1201   1.412       .  A
C369        C370   1.397   1_556  A
C369       C1200   1.412       .  A
C369       Br376   1.922       .  S
C370       C1203   1.408   1_455  A
C370        H375   1.083       .  S
C371        C372   1.414       .  A
C371       C1202   1.408       .  A
C372       Br373   1.922       .  S
C377        C378   1.408       .  A
C377        C382   1.401       .  A
C377        H384   1.082       .  S
C378        C379   1.420       .  A
C379        C380   1.396       .  A
C379       Br386   1.925       .  S
C380        C381   1.400       .  A
C380        H385   1.083       .  S
C381        C382   1.410       .  A
C382       Br383   1.920       .  S
C387        C388   1.406       .  A
C387        C392   1.395       .  A
C387        H394   1.083       .  S
C388        C389   1.415       .  A
C389        C390   1.404       .  A
C389       Br396   1.922       .  S
C390        C391   1.408       .  A
C390        H395   1.083       .  S
C391        C392   1.414       .  A
C392       Br393   1.924       .  S
C397        C398   1.403       .  A
C397        C818   1.394   1_545  A
C397        H404   1.083       .  S
C398        C399   1.410       .  A
C399        C816   1.401   1_545  A
C399       Br406   1.918       .  S
C400        C401   1.408       .  A
C400        C815   1.401       .  A
C400        H405   1.082       .  S
C401        C402   1.417       .  A
C402        C813   1.394       .  A
C402       Br403   1.925       .  S
C407        C412   1.401   1_565  A
C407        C824   1.409       .  A
C407        H414   1.083       .  S
C408        C409   1.419       .  A
C408        C823   1.409       .  A
C409        C410   1.397       .  A
C409       Br416   1.924       .  S
C410        C827   1.401       .  A
C410        H415   1.084       .  S
C411        C412   1.410       .  A
C411        C826   1.401   1_545  A
C412       Br413   1.921       .  S
O417       Cr435   1.983       .  S
O417        C425   1.261       .  A
O418      Cr1267   2.001       .  S
O418        C419   1.263       .  A
C419        O420   1.262       .  A
C419        C824   1.491       .  S
O420       Cr436   1.981       .  S
O421       Cr436   2.010       .  S
O421       C1254   1.267       .  A
C422       O1253   1.267       .  A
C422        O423   1.261       .  A
C422        C774   1.482       .  S
O423       Cr437   1.976       .  S
O424       Cr437   1.996       .  S
O424        C425   1.261       .  A
C425        C817   1.485       .  S
O426       Cr435   2.007       .  S
O426        C434   1.269       .  A
O427      Cr1267   1.976       .  S
O427        C428   1.260       .  A
C428        O429   1.267       .  A
C428        C797   1.477       .  S
O429       Cr436   2.004       .  S
O430       Cr436   1.979       .  S
O430       C1263   1.259       .  A
C431       O1262   1.259       .  A
C431        O432   1.263       .  A
C431        C784   1.484       .  S
O432       Cr437   1.998       .  S
O433       Cr437   1.981       .  S
O433        C434   1.261       .  A
C434        C804   1.489       .  S
Cr435      O1250   2.001       .  S
Cr435      O1259   1.976       .  S
Cr435       O438   1.767       .  S
Cr436      O1270   1.767       .  S
Cr437       O438   1.767       .  S
O438      Cr1268   1.767       .  S
O439       Cr457   1.997       .  S
O439        C447   1.262       .  A
O440       Cr457   1.977       .  S
O440        C441   1.260       .  A
C441        O442   1.266       .  A
C441        C827   1.479       .  S
O442       Cr458   2.004       .  S
O443       Cr458   1.988       .  S
O443        C444   1.263       .  A
C444        O445   1.264       .  A
C444        C757   1.488       .  S
O445       Cr459   2.005       .  S
O446       Cr459   1.987       .  S
O446        C447   1.264       .  A
C447        C794   1.490       .  S
O448       Cr457   1.982       .  S
O448        C456   1.261       .  A
O449       Cr457   1.995       .  S
O449        C450   1.264       .  A
C450        O451   1.261       .  A
C450        C814   1.480       .  S
O451       Cr458   1.986       .  S
O452       Cr458   2.002       .  S
O452        C453   1.264       .  A
C453        O454   1.264       .  A
C453        C764   1.486       .  S
O454       Cr459   1.985       .  S
O455       Cr459   2.007       .  S
O455        C456   1.264       .  A
C456        C807   1.488       .  S
Cr457       O460   1.770       .  S
Cr458       O460   1.770       .  S
Cr459       O460   1.767       .  S
O461       Cr479   1.984       .  S
O461        C469   1.263       .  A
O462       Cr479   2.000       .  S
O462        C463   1.264       .  A
C463        O464   1.262       .  A
C463        C727   1.479       .  S
O464       Cr480   1.983       .  S
O465       Cr480   1.999       .  S
O465        C466   1.264       .  A
C466        O467   1.261       .  A
C466        C707   1.472       .  S
O467       Cr481   1.977       .  S
O468       Cr481   1.999       .  S
O468        C469   1.264       .  A
C469        C717   1.481       .  S
O470       Cr479   1.996       .  S
O470        C478   1.262       .  A
O471       Cr479   1.988       .  S
O471        C472   1.263       .  A
C472        O473   1.263       .  A
C472        C734   1.484       .  S
O473       Cr480   1.996       .  S
O474       Cr480   1.983       .  S
O474        C475   1.261       .  A
C475        O476   1.263       .  A
C475        C697   1.478       .  S
O476       Cr481   1.998       .  S
O477       Cr481   1.978       .  S
O477        C478   1.260       .  A
C478        C747   1.480       .  S
Cr479       O482   1.771       .  S
Cr480       O482   1.766       .  S
Cr481       O482   1.769       .  S
O483       Cr501   2.003       .  S
O483        C491   1.266       .  A
O484       Cr501   1.970       .  S
O484        C485   1.257       .  A
C485        O486   1.267       .  A
C485        C744   1.482       .  S
O486       Cr502   2.006   1_455  S
O487       Cr502   1.981   1_455  S
O487        C488   1.260       .  A
C488        O489   1.269       .  A
C488        C754   1.491       .  S
O489       Cr503   2.013       .  S
O490       Cr503   1.976       .  S
O490        C491   1.258       .  A
C491        C714   1.486       .  S
O492      Cr1333   1.971       .  S
O492        C500   1.257       .  A
O493      Cr1333   2.002       .  S
O493        C494   1.266       .  A
C494        O495   1.260       .  A
C494        C737   1.485       .  S
O495      Cr1334   1.981       .  S
O496      Cr1334   2.006       .  S
O496        C497   1.267       .  A
C497        O498   1.259       .  A
C497        C767   1.484       .  S
O498      Cr1335   1.975       .  S
O499      Cr1335   2.015       .  S
O499        C500   1.269       .  A
C500        C724   1.491       .  S
Cr501      O1324   1.971   1_455  S
Cr501      O1325   2.002   1_455  S
Cr501       O504   1.766       .  S
Cr502      O1327   1.980       .  S
Cr502      O1328   2.006       .  S
Cr502       O504   1.766   1_655  S
Cr503      O1330   1.975   1_455  S
Cr503      O1331   2.014   1_455  S
Cr503       O504   1.764       .  S
O505       Cr523   1.991       .  S
O505        C513   1.261       .  A
O506       Cr523   1.984       .  S
O506        C507   1.262       .  A
C507        O508   1.261       .  A
C507        C684   1.487       .  S
O508       Cr524   1.996       .  S
O509       Cr524   1.978       .  S
O509        C510   1.260       .  A
C510        O511   1.265       .  A
C510        C694   1.477       .  S
O511       Cr525   2.004       .  S
O512       Cr525   1.982       .  S
O512        C513   1.261       .  A
C513        C674   1.481       .  S
O514       Cr523   1.984       .  S
O514        C522   1.261       .  A
O515       Cr523   1.994       .  S
O515        C516   1.263       .  A
C516        O517   1.261       .  A
C516        C657   1.474       .  S
O517       Cr524   1.978       .  S
O518       Cr524   1.998       .  S
O518        C519   1.263       .  A
C519        O520   1.260       .  A
C519        C704   1.473       .  S
O520       Cr525   1.980       .  S
O521       Cr525   2.003       .  S
O521        C522   1.268       .  A
C522        C664   1.493       .  S
Cr523       O526   1.769       .  S
Cr524       O526   1.768       .  S
Cr525       O526   1.768       .  S
O527      Cr1377   1.976       .  S
O527        C535   1.258       .  A
O528      Cr1377   1.999       .  S
O528        C529   1.264       .  A
C529        O530   1.262       .  A
C529        C667   1.481       .  S
O530      Cr1378   1.990       .  S
O531      Cr1378   1.998       .  S
O531        C532   1.265       .  A
C532        O533   1.260       .  A
C532        C647   1.471       .  S
O533      Cr1379   1.971       .  S
O534      Cr1379   2.002       .  S
O534        C535   1.266       .  A
C535        C677   1.481       .  S
O536       Cr545   2.004   1_455  S
O536        C544   1.266       .  A
O537       Cr545   1.972   1_455  S
O537        C538   1.258       .  A
C538        O539   1.266       .  A
C538        C654   1.485       .  S
O539       Cr546   1.998   1_455  S
O540       Cr546   1.988   1_455  S
O540        C541   1.263       .  A
C541        O542   1.262       .  A
C541        C634   1.483       .  S
O542       Cr547   1.996   1_455  S
O543       Cr547   1.975   1_455  S
O543        C544   1.259       .  A
C544        C687   1.474       .  S
Cr545      O1359   1.976       .  S
Cr545      O1360   1.999       .  S
Cr545       O548   1.767       .  S
Cr546      O1362   1.990       .  S
Cr546      O1363   1.997       .  S
Cr546       O548   1.767       .  S
Cr547      O1365   1.972       .  S
Cr547      O1366   2.002       .  S
Cr547       O548   1.765       .  S
O549       Cr567   1.990       .  S
O549        C557   1.260       .  A
O550      Cr1399   1.989   1_455  S
O550        C551   1.261       .  A
C551        O552   1.265       .  A
C551        C624   1.485       .  S
O552       Cr568   1.996       .  S
O553       Cr568   1.974       .  S
O553       C1386   1.259       .  A
C554       O1385   1.260       .  A
C554        O555   1.267       .  A
C554        C777   1.482       .  S
O555       Cr569   2.009       .  S
O556       Cr569   1.983       .  S
O556        C557   1.261       .  A
C557        C614   1.482       .  S
O558       Cr567   1.977       .  S
O558        C566   1.261       .  A
O559      Cr1399   2.002   1_455  S
O559        C560   1.265       .  A
C560        O561   1.259       .  A
C560        C594   1.485       .  S
O561       Cr568   1.972       .  S
O562       Cr568   1.999       .  S
O562       C1395   1.264   1_455  A
C563       O1394   1.264       .  A
C563        O564   1.258       .  A
C563        C787   1.486       .  S
O564       Cr569   1.977       .  S
O565       Cr569   2.009       .  S
O565        C566   1.267       .  A
C566        C607   1.475       .  S
Cr567      O1382   1.988       .  S
Cr567      O1391   2.001       .  S
Cr567       O570   1.769       .  S
Cr568      O1402   1.762   1_455  S
Cr569       O570   1.766       .  S
O570      Cr1400   1.761       .  S
O571       Cr589   1.988       .  S
O571        C579   1.263       .  A
O572       Cr589   1.992       .  S
O572        C573   1.262       .  A
C573        O574   1.262       .  A
C573        C627   1.470       .  S
O574       Cr590   1.995       .  S
O575       Cr590   1.985       .  S
O575        C576   1.265       .  A
C576        O577   1.263       .  A
C576        C637   1.484       .  S
O577       Cr591   1.999       .  S
O578       Cr591   1.982       .  S
O578        C579   1.260       .  A
C579        C597   1.485       .  S
O580       Cr589   1.985       .  S
O580        C588   1.261       .  A
O581       Cr589   1.993       .  S
O581        C582   1.261       .  A
C582        O583   1.264       .  A
C582        C617   1.485       .  S
O583       Cr590   1.981       .  S
O584       Cr590   1.991       .  S
O584        C585   1.261       .  A
C585        O586   1.260       .  A
C585        C644   1.471       .  S
O586       Cr591   1.979       .  S
O587       Cr591   1.998       .  S
O587        C588   1.264       .  A
C588        C604   1.480       .  S
Cr589       O592   1.768       .  S
Cr590       O592   1.766       .  S
Cr591       O592   1.766       .  S
C593        C594   1.410       .  A
C593        C598   1.399       .  A
C593        H600   1.083       .  S
C594        C595   1.413       .  A
C595        C596   1.393       .  A
C595       Br602   1.925       .  S
C596        C597   1.407       .  A
C596        H601   1.083       .  S
C597        C598   1.413       .  A
C598       Br599   1.923       .  S
C603        C604   1.406       .  A
C603        C608   1.398       .  A
C603        H610   1.084       .  S
C604        C605   1.412       .  A
C605        C606   1.401       .  A
C605       Br612   1.920       .  S
C606        C607   1.403       .  A
C606        H611   1.084       .  S
C607        C608   1.407       .  A
C608       Br609   1.920       .  S
C613        C618   1.398   1_545  A
C613        H620   1.083       .  S
C614        C615   1.416       .  A
C615        C616   1.393       .  A
C615       Br622   1.924       .  S
C616        H621   1.083       .  S
C617        C618   1.419       .  A
C618       Br619   1.925       .  S
C623        C624   1.406       .  A
C623        C628   1.391       .  A
C623        H630   1.083       .  S
C625        C626   1.405       .  A
C625       Br632   1.919       .  S
C626        C627   1.402       .  A
C626        H631   1.083       .  S
C628       Br629   1.922       .  S
C633        C634   1.403       .  A
C633        C638   1.400       .  A
C633        H640   1.085       .  S
C634        C635   1.416       .  A
C635        C636   1.397       .  A
C635       Br642   1.923       .  S
C636        C637   1.402       .  A
C636        H641   1.085       .  S
C637        C638   1.418       .  A
C638       Br639   1.924       .  S
C643        C644   1.405       .  A
C643        C648   1.395       .  A
C643        H650   1.084       .  S
C644        C645   1.408       .  A
C645        C646   1.395       .  A
C645       Br652   1.921       .  S
C646        C647   1.406       .  A
C646        H651   1.084       .  S
C647        C648   1.409       .  A
C648       Br649   1.922       .  S
C653        C654   1.406       .  A
C653        C658   1.392       .  A
C653        H660   1.083       .  S
C654        C655   1.418       .  A
C655        C656   1.400       .  A
C655       Br662   1.923       .  S
C656        C657   1.402       .  A
C656        H661   1.083       .  S
C657        C658   1.411       .  A
C658       Br659   1.925       .  S
C663        C664   1.407       .  A
C663        C668   1.393       .  A
C663        H670   1.082       .  S
C664        C665   1.420       .  A
C665        C666   1.407       .  A
C665       Br672   1.922       .  S
C666        C667   1.405       .  A
C666        H671   1.083       .  S
C667        C668   1.410       .  A
C668       Br669   1.924       .  S
C673        C674   1.405       .  A
C673        C678   1.400       .  A
C673        H680   1.083       .  S
C674        C675   1.415       .  A
C676        C677   1.403   1_545  A
C676        H681   1.083       .  S
C678       Br679   1.921       .  S
C683        C684   1.408       .  A
C683        H690   1.083       .  S
C684        C685   1.420       .  A
C685       Br692   1.925       .  S
C686        C687   1.400       .  A
C686        H691   1.084       .  S
C687        C688   1.409       .  A
C688       Br689   1.921       .  S
C693        C694   1.405       .  A
C693        C698   1.398       .  A
C693        H700   1.083       .  S
C695        C696   1.398       .  A
C695       Br702   1.922       .  S
C696        C697   1.406       .  A
C696        H701   1.083       .  S
C698       Br699   1.920       .  S
C703        C704   1.404       .  A
C703        C708   1.398       .  A
C703        H710   1.084       .  S
C704        C705   1.409       .  A
C705        C706   1.398       .  A
C705       Br712   1.919       .  S
C706        C707   1.404       .  A
C706        H711   1.084       .  S
C707        C708   1.408       .  A
C708       Br709   1.920       .  S
C713        C714   1.406       .  A
C713        C718   1.395       .  A
C713        H720   1.083       .  S
C714        C715   1.416       .  A
C715        C716   1.401       .  A
C715       Br722   1.922       .  S
C716        C717   1.405       .  A
C716        H721   1.083       .  S
C717        C718   1.413       .  A
C718       Br719   1.924       .  S
C723        C724   1.407       .  A
C723        C728   1.396       .  A
C723        H730   1.083       .  S
C724        C725   1.420       .  A
C725        C726   1.401       .  A
C725       Br732   1.923       .  S
C726        C727   1.402       .  A
C726        H731   1.083       .  S
C727        C728   1.411       .  A
C728       Br729   1.923       .  S
C733        C738   1.403       .  A
C733        H740   1.083       .  S
C734        C735   1.415       .  A
C735        C736   1.393   1_565  A
C735       Br742   1.925       .  S
C736        H741   1.083       .  S
C737        C738   1.415       .  A
C738       Br739   1.921       .  S
C743        C748   1.394       .  A
C743        H750   1.084       .  S
C744        C745   1.416       .  A
C745        C746   1.399       .  A
C745       Br752   1.922       .  S
C746        H751   1.084       .  S
C747        C748   1.415       .  A
C748       Br749   1.924       .  S
C753        C754   1.405       .  A
C753        C758   1.398       .  A
C753        H760   1.083       .  S
C754        C755   1.417       .  A
C755        C756   1.404       .  A
C755       Br762   1.922       .  S
C756        C757   1.406       .  A
C756        H761   1.083       .  S
C757        C758   1.414       .  A
C758       Br759   1.923       .  S
C763        C764   1.406       .  A
C763        C768   1.401       .  A
C763        H770   1.083       .  S
C764        C765   1.416       .  A
C765        C766   1.397       .  A
C765       Br772   1.923       .  S
C766        C767   1.404       .  A
C766        H771   1.084       .  S
C767        C768   1.414       .  A
C768       Br769   1.922       .  S
C773       C1606   1.406   1_554  A
C773        H780   1.083       .  S
C774       C1605   1.406   1_556  A
C774        C775   1.412   1_565  A
C775       Br782   1.922       .  S
C776        C777   1.406   1_556  A
C776        H781   1.083       .  S
C777       C1610   1.413       .  A
C778       C1609   1.413       .  A
C778       Br779   1.923       .  S
C783        C784   1.407       .  A
C783        C788   1.397   1_556  A
C783        H790   1.083       .  S
C784       C1617   1.412       .  A
C785       C1616   1.412       .  A
C785        C786   1.397   1_556  A
C785       Br792   1.922       .  S
C786       C1619   1.408   1_455  A
C786        H791   1.083       .  S
C787       C1618   1.408       .  A
C787        C788   1.414       .  A
C788       Br789   1.922       .  S
C793        C794   1.408       .  A
C793        C798   1.401       .  A
C793        H800   1.082       .  S
C794        C795   1.420       .  A
C795        C796   1.396       .  A
C795       Br802   1.925       .  S
C796        C797   1.400       .  A
C796        H801   1.083       .  S
C797        C798   1.410       .  A
C798       Br799   1.920       .  S
C803        C804   1.406       .  A
C803        C808   1.395       .  A
C803        H810   1.083       .  S
C804        C805   1.415       .  A
C805        C806   1.404       .  A
C805       Br812   1.922       .  S
C806        C807   1.408       .  A
C806        H811   1.083       .  S
C807        C808   1.414       .  A
C808       Br809   1.924       .  S
C813        C814   1.403       .  A
C813        H820   1.083       .  S
C814        C815   1.410       .  A
C815       Br822   1.918       .  S
C816        C817   1.408       .  A
C816        H821   1.082       .  S
C817        C818   1.417       .  A
C818       Br819   1.925       .  S
C823        C828   1.401       .  A
C823        H830   1.083       .  S
C824        C825   1.419       .  A
C825        C826   1.397       .  A
C825       Br832   1.924       .  S
C826        H831   1.084   1_565  S
C827        C828   1.410       .  A
C828       Br829   1.921       .  S
O833       Cr851   1.983   1_655  S
O833        C841   1.261       .  A
O834        C835   1.263       .  A
C835        O836   1.262       .  A
C835       C1240   1.491       .  S
O836       Cr852   1.981       .  S
O837       Cr852   2.010       .  S
C838        O839   1.261   1_455  A
C838       C1190   1.482       .  S
O839       Cr853   1.976       .  S
O840       Cr853   1.996       .  S
O840        C841   1.261       .  A
C841       C1233   1.485       .  S
O842       Cr851   2.007   1_655  S
O842        C850   1.269       .  A
O843        C844   1.260       .  A
C844        O845   1.267       .  A
C844       C1213   1.477       .  S
O845       Cr852   2.004       .  S
O846       Cr852   1.979       .  S
C847        O848   1.263   1_455  A
C847       C1200   1.484       .  S
O848       Cr853   1.998       .  S
O849       Cr853   1.981       .  S
O849        C850   1.261       .  A
C850       C1220   1.489       .  S
Cr851       O854   1.767       .  S
Cr853       O854   1.767   1_655  S
O855       Cr873   1.997       .  S
O855        C863   1.262       .  A
O856       Cr873   1.977       .  S
O856        C857   1.260       .  A
C857        O858   1.266       .  A
C857       C1243   1.479       .  S
O858       Cr874   2.004       .  S
O859       Cr874   1.988       .  S
O859        C860   1.263       .  A
C860        O861   1.264       .  A
C860       C1173   1.488       .  S
O861       Cr875   2.005       .  S
O862       Cr875   1.987       .  S
O862        C863   1.264       .  A
C863       C1210   1.490       .  S
O864       Cr873   1.982       .  S
O864        C872   1.261       .  A
O865       Cr873   1.995       .  S
O865        C866   1.264       .  A
C866        O867   1.261       .  A
C866       C1230   1.480       .  S
O867       Cr874   1.986       .  S
O868       Cr874   2.002       .  S
O868        C869   1.264       .  A
C869        O870   1.264       .  A
C869       C1180   1.486       .  S
O870       Cr875   1.985       .  S
O871       Cr875   2.007       .  S
O871        C872   1.264       .  A
C872       C1223   1.487       .  S
Cr873       O876   1.771       .  S
Cr874       O876   1.770       .  S
Cr875       O876   1.767       .  S
O877       Cr895   1.984       .  S
O877        C885   1.263       .  A
O878       Cr895   2.000       .  S
O878        C879   1.264       .  A
C879        O880   1.262       .  A
C879       C1143   1.478       .  S
O880       Cr896   1.983       .  S
O881       Cr896   1.999       .  S
O881        C882   1.264       .  A
C882        O883   1.261       .  A
C882       C1123   1.472       .  S
O883       Cr897   1.977       .  S
O884       Cr897   1.999       .  S
O884        C885   1.264       .  A
C885       C1133   1.481       .  S
O886       Cr895   1.996       .  S
O886        C894   1.262       .  A
O887       Cr895   1.988       .  S
O887        C888   1.263       .  A
C888        O889   1.262       .  A
C888       C1150   1.484       .  S
O889       Cr896   1.996       .  S
O890       Cr896   1.983       .  S
O890        C891   1.261       .  A
C891        O892   1.263       .  A
C891       C1113   1.478       .  S
O892       Cr897   1.998       .  S
O893       Cr897   1.978       .  S
O893        C894   1.260       .  A
C894       C1163   1.480       .  S
Cr895       O898   1.771       .  S
Cr896       O898   1.766       .  S
Cr897       O898   1.769       .  S
O899       Cr917   2.003       .  S
O899        C907   1.266       .  A
O900       Cr917   1.970       .  S
O900        C901   1.257       .  A
C901        O902   1.267       .  A
C901       C1160   1.482       .  S
O902       Cr918   2.006       .  S
O903       Cr918   1.981       .  S
O903        C904   1.260       .  A
C904        O905   1.269       .  A
C904       C1170   1.491       .  S
O905       Cr919   2.013       .  S
O906       Cr919   1.976       .  S
O906        C907   1.258       .  A
C907       C1130   1.486       .  S
O908        C916   1.257       .  A
O909        C910   1.266       .  A
C910        O911   1.259       .  A
C910       C1153   1.485       .  S
O912        C913   1.267       .  A
C913        O914   1.259       .  A
C913       C1183   1.484       .  S
O915        C916   1.269       .  A
C916       C1140   1.490       .  S
Cr917       O920   1.766       .  S
Cr918       O920   1.766       .  S
Cr919       O920   1.764       .  S
O921       Cr939   1.991       .  S
O921        C929   1.261       .  A
O922       Cr939   1.984       .  S
O922        C923   1.262       .  A
C923        O924   1.261       .  A
C923       C1100   1.486       .  S
O924       Cr940   1.996       .  S
O925       Cr940   1.978       .  S
O925        C926   1.260       .  A
C926        O927   1.265       .  A
C926       C1110   1.477       .  S
O927       Cr941   2.004       .  S
O928       Cr941   1.982       .  S
O928        C929   1.261       .  A
C929       C1090   1.481       .  S
O930       Cr939   1.984       .  S
O930        C938   1.261       .  A
O931       Cr939   1.994       .  S
O931        C932   1.263       .  A
C932        O933   1.261       .  A
C932       C1073   1.474       .  S
O933       Cr940   1.978       .  S
O934       Cr940   1.997       .  S
O934        C935   1.263       .  A
C935        O936   1.260       .  A
C935       C1120   1.473       .  S
O936       Cr941   1.979       .  S
O937       Cr941   2.003       .  S
O937        C938   1.268       .  A
C938       C1080   1.493       .  S
Cr939       O942   1.768       .  S
Cr940       O942   1.768       .  S
Cr941       O942   1.768       .  S
O943        C951   1.258       .  A
O944        C945   1.264       .  A
C945        O946   1.262       .  A
C945       C1083   1.481       .  S
O947        C948   1.265       .  A
C948        O949   1.260       .  A
C948       C1063   1.472       .  S
O950        C951   1.266       .  A
C951       C1093   1.481       .  S
O952       Cr961   2.004       .  S
O952        C960   1.266       .  A
O953       Cr961   1.972       .  S
O953        C954   1.257       .  A
C954        O955   1.266       .  A
C954       C1070   1.485       .  S
O955       Cr962   1.999       .  S
O956       Cr962   1.987       .  S
O956        C957   1.263       .  A
C957        O958   1.261       .  A
C957       C1050   1.483       .  S
O958       Cr963   1.996       .  S
O959       Cr963   1.975       .  S
O959        C960   1.259       .  A
C960       C1103   1.474       .  S
Cr961       O964   1.766       .  S
Cr962       O964   1.767       .  S
Cr963       O964   1.765       .  S
O965       Cr983   1.990       .  S
O965        C973   1.260       .  A
O966        C967   1.261       .  A
C967        O968   1.265       .  A
C967       C1040   1.485       .  S
O968       Cr984   1.997       .  S
O969       Cr984   1.974       .  S
C970        O971   1.267   1_455  A
C970       C1193   1.482       .  S
O971       Cr985   2.009       .  S
O972       Cr985   1.983       .  S
O972        C973   1.261       .  A
C973       C1030   1.482       .  S
O974       Cr983   1.978       .  S
O974        C982   1.261       .  A
O975        C976   1.265       .  A
C976        O977   1.259       .  A
C976       C1010   1.484       .  S
O977       Cr984   1.973       .  S
O978       Cr984   1.999       .  S
C979        O980   1.258       .  A
C979       C1203   1.485       .  S
O980       Cr985   1.977       .  S
O981       Cr985   2.008       .  S
O981        C982   1.267       .  A
C982       C1023   1.475       .  S
Cr983       O986   1.769       .  S
Cr985       O986   1.766       .  S
O987      Cr1005   1.987       .  S
O987        C995   1.263       .  A
O988      Cr1005   1.993       .  S
O988        C989   1.262       .  A
C989        O990   1.262       .  A
C989       C1043   1.471       .  S
O990      Cr1006   1.993       .  S
O991      Cr1006   1.985       .  S
O991        C992   1.265       .  A
C992        O993   1.263       .  A
C992       C1053   1.484       .  S
O993      Cr1007   1.999       .  S
O994      Cr1007   1.982       .  S
O994        C995   1.260       .  A
C995       C1013   1.484       .  S
O996      Cr1005   1.987       .  S
O996       C1004   1.262       .  A
O997      Cr1005   1.993       .  S
O997        C998   1.260       .  A
C998        O999   1.264       .  A
C998       C1033   1.485       .  S
O999      Cr1006   1.981       .  S
O1000     Cr1006   1.990       .  S
O1000      C1001   1.261       .  A
C1001      O1002   1.260       .  A
C1001      C1060   1.472       .  S
O1002     Cr1007   1.979       .  S
O1003     Cr1007   1.998       .  S
O1003      C1004   1.265       .  A
C1004      C1020   1.482       .  S
Cr1005     O1008   1.768       .  S
Cr1006     O1008   1.765       .  S
Cr1007     O1008   1.766       .  S
C1009      C1010   1.410       .  A
C1009      C1014   1.399       .  A
C1009      H1016   1.083       .  S
C1010      C1011   1.413       .  A
C1011      C1012   1.392       .  A
C1011     Br1018   1.925       .  S
C1012      C1013   1.407       .  A
C1012      H1017   1.083       .  S
C1013      C1014   1.413       .  A
C1014     Br1015   1.923       .  S
C1019      C1020   1.407       .  A
C1019      C1024   1.398       .  A
C1019      H1026   1.084       .  S
C1020      C1021   1.412       .  A
C1021      C1022   1.401       .  A
C1021     Br1028   1.920       .  S
C1022      C1023   1.403       .  A
C1022      H1027   1.084       .  S
C1023      C1024   1.407       .  A
C1024     Br1025   1.920       .  S
C1029      C1446   1.404       .  A
C1029      C1034   1.398       .  A
C1029      H1036   1.084       .  S
C1030      C1445   1.404       .  A
C1030      C1031   1.416       .  A
C1031      C1032   1.393   1_545  A
C1031     Br1038   1.924       .  S
C1032      C1449   1.403       .  A
C1032      H1037   1.083       .  S
C1033      C1448   1.403       .  A
C1033      C1034   1.420       .  A
C1034     Br1035   1.925       .  S
C1039      C1040   1.406       .  A
C1039      C1044   1.391       .  A
C1039      H1046   1.083       .  S
C1040      C1457   1.416   1_545  A
C1041      C1456   1.416       .  A
C1041      C1042   1.406       .  A
C1041     Br1048   1.919       .  S
C1042      C1043   1.403       .  A
C1042      H1047   1.083       .  S
C1043      C1460   1.407       .  A
C1044      C1459   1.407   1_545  A
C1044     Br1045   1.922       .  S
C1049      C1050   1.403       .  A
C1049      C1054   1.400       .  A
C1049      H1056   1.085       .  S
C1050      C1051   1.416       .  A
C1051      C1052   1.397       .  A
C1051     Br1058   1.923       .  S
C1052      C1053   1.402       .  A
C1052      H1057   1.085       .  S
C1053      C1054   1.418       .  A
C1054     Br1055   1.924       .  S
C1059      C1060   1.406       .  A
C1059      C1064   1.395       .  A
C1059      H1066   1.084       .  S
C1060      C1061   1.408       .  A
C1061      C1062   1.395       .  A
C1061     Br1068   1.921       .  S
C1062      C1063   1.406       .  A
C1062      H1067   1.084       .  S
C1063      C1064   1.409       .  A
C1064     Br1065   1.923       .  S
C1069      C1070   1.406       .  A
C1069      C1074   1.392       .  A
C1069      H1076   1.083       .  S
C1070      C1071   1.418       .  A
C1071      C1072   1.400       .  A
C1071     Br1078   1.923       .  S
C1072      C1073   1.402       .  A
C1072      H1077   1.083       .  S
C1073      C1074   1.411       .  A
C1074     Br1075   1.925       .  S
C1079      C1080   1.407       .  A
C1079      C1084   1.393       .  A
C1079      H1086   1.082       .  S
C1080      C1081   1.420       .  A
C1081      C1082   1.407       .  A
C1081     Br1088   1.922       .  S
C1082      C1083   1.405       .  A
C1082      H1087   1.083       .  S
C1083      C1084   1.410       .  A
C1084     Br1085   1.924       .  S
C1089      C1090   1.405   1_565  A
C1089      C1094   1.401       .  A
C1089      H1096   1.083       .  S
C1090      C1091   1.415       .  A
C1091      C1508   1.394       .  A
C1091     Br1514   1.926       .  S
C1092      C1507   1.394       .  A
C1092      C1093   1.404       .  A
C1092      H1097   1.083       .  S
C1093      C1510   1.414       .  A
C1094      C1509   1.414       .  A
C1094     Br1095   1.921       .  S
Br1098     C1507   1.926       .  S
C1099      C1100   1.408       .  A
C1099      C1520   1.399   1_545  A
C1099      H1106   1.083       .  S
C1100      C1101   1.420       .  A
C1101      C1518   1.395   1_545  A
C1101     Br1108   1.925       .  S
C1102      C1517   1.395       .  A
C1102      C1103   1.400       .  A
C1102      H1107   1.084       .  S
C1103      C1104   1.409       .  A
C1104      C1515   1.399       .  A
C1104     Br1105   1.921       .  S
C1109      C1110   1.405       .  A
C1109      C1114   1.398       .  A
C1109      H1116   1.083       .  S
C1110      C1527   1.411   1_545  A
C1111      C1526   1.411       .  A
C1111      C1112   1.398       .  A
C1111     Br1118   1.922       .  S
C1112      C1113   1.406       .  A
C1112      H1117   1.083       .  S
C1113      C1530   1.410       .  A
C1114      C1529   1.410   1_545  A
C1114     Br1115   1.920       .  S
C1119      C1120   1.404       .  A
C1119      C1124   1.398       .  A
C1119      H1126   1.084       .  S
C1120      C1121   1.409       .  A
C1121      C1122   1.398       .  A
C1121     Br1128   1.919       .  S
C1122      C1123   1.404       .  A
C1122      H1127   1.084       .  S
C1123      C1124   1.408       .  A
C1124     Br1125   1.920       .  S
C1129      C1130   1.406       .  A
C1129      C1134   1.395       .  A
C1129      H1136   1.083       .  S
C1130      C1131   1.416       .  A
C1131      C1132   1.401       .  A
C1131     Br1138   1.922       .  S
C1132      C1133   1.404       .  A
C1132      H1137   1.083       .  S
C1133      C1134   1.413       .  A
C1134     Br1135   1.923       .  S
C1139      C1140   1.407       .  A
C1139      C1144   1.396       .  A
C1139      H1146   1.083       .  S
C1140      C1141   1.420       .  A
C1141      C1142   1.401       .  A
C1141     Br1148   1.923       .  S
C1142      C1143   1.402       .  A
C1142      H1147   1.083       .  S
C1143      C1144   1.411       .  A
C1144     Br1145   1.923       .  S
C1149      C1566   1.406       .  A
C1149      C1154   1.403   1_565  A
C1149      H1156   1.083       .  S
C1150      C1565   1.406       .  A
C1150      C1151   1.415       .  A
C1151      C1152   1.393       .  A
C1151     Br1158   1.925       .  S
C1152      C1569   1.404       .  A
C1152      H1157   1.083       .  S
C1153      C1568   1.404       .  A
C1153      C1154   1.415       .  A
C1154     Br1155   1.921       .  S
C1159      C1576   1.404       .  A
C1159      C1164   1.394       .  A
C1159      H1166   1.084       .  S
C1160      C1575   1.404   1_545  A
C1160      C1161   1.416       .  A
C1161      C1162   1.399   1_545  A
C1161     Br1168   1.922       .  S
C1162      C1579   1.405       .  A
C1162      H1167   1.084   1_565  S
C1163      C1578   1.405       .  A
C1163      C1164   1.414       .  A
C1164     Br1165   1.924       .  S
C1169      C1170   1.405       .  A
C1169      C1174   1.398       .  A
C1169      H1176   1.083       .  S
C1170      C1171   1.417       .  A
C1171      C1172   1.404       .  A
C1171     Br1178   1.922       .  S
C1172      C1173   1.406       .  A
C1172      H1177   1.083       .  S
C1173      C1174   1.414       .  A
C1174     Br1175   1.923       .  S
C1179      C1180   1.406       .  A
C1179      C1184   1.401       .  A
C1179      H1186   1.083       .  S
C1180      C1181   1.416       .  A
C1181      C1182   1.397       .  A
C1181     Br1188   1.923       .  S
C1182      C1183   1.404       .  A
C1182      H1187   1.084       .  S
C1183      C1184   1.414       .  A
C1184     Br1185   1.922       .  S
C1189      C1610   1.399       .  A
C1189      H1196   1.083       .  S
C1190      C1191   1.412   1_455  A
C1191      C1608   1.398       .  A
C1191     Br1198   1.922       .  S
C1192      C1607   1.398       .  A
C1192      C1193   1.406   1_656  A
C1192      H1197   1.083       .  S
C1194      C1605   1.399       .  A
C1194     Br1195   1.923       .  S
C1199      C1200   1.407   1_655  A
C1199      C1204   1.397   1_556  A
C1199      H1206   1.083       .  S
C1201      C1202   1.397   1_556  A
C1201     Br1208   1.922       .  S
C1202      H1207   1.083       .  S
C1203      C1204   1.414       .  A
C1204     Br1205   1.922       .  S
C1209      C1210   1.408       .  A
C1209      C1214   1.401       .  A
C1209      H1216   1.082       .  S
C1210      C1211   1.421       .  A
C1211      C1212   1.396       .  A
C1211     Br1218   1.925       .  S
C1212      C1213   1.400       .  A
C1212      H1217   1.083       .  S
C1213      C1214   1.410       .  A
C1214     Br1215   1.920       .  S
C1219      C1220   1.406       .  A
C1219      C1224   1.395       .  A
C1219      H1226   1.083       .  S
C1220      C1221   1.415       .  A
C1221      C1222   1.404       .  A
C1221     Br1228   1.922       .  S
C1222      C1223   1.408       .  A
C1222      H1227   1.083       .  S
C1223      C1224   1.414       .  A
C1224     Br1225   1.924       .  S
C1229      C1230   1.403       .  A
C1229      C1650   1.394   1_545  A
C1229      H1236   1.083       .  S
C1230      C1231   1.410       .  A
C1231      C1648   1.401   1_545  A
C1231     Br1238   1.918       .  S
C1232      C1647   1.401       .  A
C1232      C1233   1.408       .  A
C1232      H1237   1.082       .  S
C1233      C1234   1.417       .  A
C1234      C1645   1.394       .  A
C1234     Br1235   1.925       .  S
C1239      C1656   1.409       .  A
C1239      C1244   1.401   1_565  A
C1239      H1246   1.083       .  S
C1240      C1655   1.409       .  A
C1240      C1241   1.419       .  A
C1241      C1242   1.397       .  A
C1241     Br1248   1.924       .  S
C1242      C1659   1.401       .  A
C1242      H1247   1.084       .  S
C1243      C1658   1.401   1_545  A
C1243      C1244   1.410       .  A
C1244     Br1245   1.921       .  S
O1249     Cr1267   1.983   1_655  S
O1249      C1257   1.261       .  A
O1250      C1251   1.263       .  A
C1251      O1252   1.262       .  A
C1251      C1656   1.491       .  S
O1252     Cr1268   1.981       .  S
O1253     Cr1268   2.010       .  S
C1254      O1255   1.261   1_455  A
C1254      C1606   1.482       .  S
O1255     Cr1269   1.976       .  S
O1256     Cr1269   1.996       .  S
O1256      C1257   1.261       .  A
C1257      C1649   1.485       .  S
O1258     Cr1267   2.007   1_655  S
O1258      C1266   1.269       .  A
O1259      C1260   1.260       .  A
C1260      O1261   1.267       .  A
C1260      C1629   1.477       .  S
O1261     Cr1268   2.005       .  S
O1262     Cr1268   1.980       .  S
C1263      O1264   1.263   1_455  A
C1263      C1616   1.484       .  S
O1264     Cr1269   1.998       .  S
O1265     Cr1269   1.981       .  S
O1265      C1266   1.261       .  A
C1266      C1636   1.489       .  S
Cr1267     O1270   1.767       .  S
Cr1269     O1270   1.767   1_655  S
O1271     Cr1289   1.997       .  S
O1271      C1279   1.262       .  A
O1272     Cr1289   1.977       .  S
O1272      C1273   1.260       .  A
C1273      O1274   1.266       .  A
C1273      C1659   1.479       .  S
O1274     Cr1290   2.004       .  S
O1275     Cr1290   1.988       .  S
O1275      C1276   1.263       .  A
C1276      O1277   1.264       .  A
C1276      C1589   1.488       .  S
O1277     Cr1291   2.005       .  S
O1278     Cr1291   1.988       .  S
O1278      C1279   1.264       .  A
C1279      C1626   1.490       .  S
O1280     Cr1289   1.982       .  S
O1280      C1288   1.261       .  A
O1281     Cr1289   1.995       .  S
O1281      C1282   1.264       .  A
C1282      O1283   1.261       .  A
C1282      C1646   1.480       .  S
O1283     Cr1290   1.986       .  S
O1284     Cr1290   2.002       .  S
O1284      C1285   1.264       .  A
C1285      O1286   1.264       .  A
C1285      C1596   1.486       .  S
O1286     Cr1291   1.985       .  S
O1287     Cr1291   2.007       .  S
O1287      C1288   1.264       .  A
C1288      C1639   1.487       .  S
Cr1289     O1292   1.770       .  S
Cr1290     O1292   1.770       .  S
Cr1291     O1292   1.767       .  S
O1293     Cr1311   1.984       .  S
O1293      C1301   1.263       .  A
O1294     Cr1311   2.000       .  S
O1294      C1295   1.264       .  A
C1295      O1296   1.262       .  A
C1295      C1559   1.478       .  S
O1296     Cr1312   1.983       .  S
O1297     Cr1312   1.999       .  S
O1297      C1298   1.264       .  A
C1298      O1299   1.261       .  A
C1298      C1539   1.472       .  S
O1299     Cr1313   1.977       .  S
O1300     Cr1313   1.999       .  S
O1300      C1301   1.264       .  A
C1301      C1549   1.481       .  S
O1302     Cr1311   1.996       .  S
O1302      C1310   1.262       .  A
O1303     Cr1311   1.988       .  S
O1303      C1304   1.263       .  A
C1304      O1305   1.263       .  A
C1304      C1566   1.484       .  S
O1305     Cr1312   1.996       .  S
O1306     Cr1312   1.983       .  S
O1306      C1307   1.261       .  A
C1307      O1308   1.263       .  A
C1307      C1529   1.478       .  S
O1308     Cr1313   1.998       .  S
O1309     Cr1313   1.978       .  S
O1309      C1310   1.260       .  A
C1310      C1579   1.480       .  S
Cr1311     O1314   1.771       .  S
Cr1312     O1314   1.766       .  S
Cr1313     O1314   1.769       .  S
O1315     Cr1333   2.003       .  S
O1315      C1323   1.266       .  A
O1316     Cr1333   1.970       .  S
O1316      C1317   1.257       .  A
C1317      O1318   1.267       .  A
C1317      C1576   1.482       .  S
O1318     Cr1334   2.006       .  S
O1319     Cr1334   1.981       .  S
O1319      C1320   1.260       .  A
C1320      O1321   1.269       .  A
C1320      C1586   1.491       .  S
O1321     Cr1335   2.013       .  S
O1322     Cr1335   1.976       .  S
O1322      C1323   1.258       .  A
C1323      C1546   1.486       .  S
O1324      C1332   1.257       .  A
O1325      C1326   1.266       .  A
C1326      O1327   1.259       .  A
C1326      C1569   1.485       .  S
O1328      C1329   1.267       .  A
C1329      O1330   1.259       .  A
C1329      C1599   1.484       .  S
O1331      C1332   1.269       .  A
C1332      C1556   1.490       .  S
Cr1333     O1336   1.766       .  S
Cr1334     O1336   1.766       .  S
Cr1335     O1336   1.764       .  S
O1337     Cr1355   1.991       .  S
O1337      C1345   1.261       .  A
O1338     Cr1355   1.984       .  S
O1338      C1339   1.262       .  A
C1339      O1340   1.261       .  A
C1339      C1516   1.487       .  S
O1340     Cr1356   1.996       .  S
O1341     Cr1356   1.978       .  S
O1341      C1342   1.260       .  A
C1342      O1343   1.265       .  A
C1342      C1526   1.477       .  S
O1343     Cr1357   2.004       .  S
O1344     Cr1357   1.982       .  S
O1344      C1345   1.261       .  A
C1345      C1506   1.481       .  S
O1346     Cr1355   1.984       .  S
O1346      C1354   1.261       .  A
O1347     Cr1355   1.994       .  S
O1347      C1348   1.263       .  A
C1348      O1349   1.261       .  A
C1348      C1489   1.474       .  S
O1349     Cr1356   1.978       .  S
O1350     Cr1356   1.998       .  S
O1350      C1351   1.263       .  A
C1351      O1352   1.260       .  A
C1351      C1536   1.473       .  S
O1352     Cr1357   1.980       .  S
O1353     Cr1357   2.003       .  S
O1353      C1354   1.268       .  A
C1354      C1496   1.493       .  S
Cr1355     O1358   1.768       .  S
Cr1356     O1358   1.768       .  S
Cr1357     O1358   1.768       .  S
O1359      C1367   1.258       .  A
O1360      C1361   1.264       .  A
C1361      O1362   1.262       .  A
C1361      C1499   1.481       .  S
O1363      C1364   1.265       .  A
C1364      O1365   1.260       .  A
C1364      C1479   1.472       .  S
O1366      C1367   1.266       .  A
C1367      C1509   1.481       .  S
O1368     Cr1377   2.004       .  S
O1368      C1376   1.266       .  A
O1369     Cr1377   1.972       .  S
O1369      C1370   1.257       .  A
C1370      O1371   1.266       .  A
C1370      C1486   1.485       .  S
O1371     Cr1378   1.999       .  S
O1372     Cr1378   1.987       .  S
O1372      C1373   1.263       .  A
C1373      O1374   1.261       .  A
C1373      C1466   1.483       .  S
O1374     Cr1379   1.996       .  S
O1375     Cr1379   1.975       .  S
O1375      C1376   1.259       .  A
C1376      C1519   1.474       .  S
Cr1377     O1380   1.766       .  S
Cr1378     O1380   1.767       .  S
Cr1379     O1380   1.765       .  S
O1381     Cr1399   1.990       .  S
O1381      C1389   1.260       .  A
O1382      C1383   1.261       .  A
C1383      O1384   1.265       .  A
C1383      C1456   1.485       .  S
O1384     Cr1400   1.997       .  S
O1385     Cr1400   1.974       .  S
C1386      O1387   1.267   1_455  A
C1386      C1609   1.482       .  S
O1387     Cr1401   2.009       .  S
O1388     Cr1401   1.983       .  S
O1388      C1389   1.261       .  A
C1389      C1446   1.482       .  S
O1390     Cr1399   1.978       .  S
O1390      C1398   1.261       .  A
O1391      C1392   1.265       .  A
C1392      O1393   1.259       .  A
C1392      C1426   1.484       .  S
O1393     Cr1400   1.973       .  S
O1394     Cr1400   1.999       .  S
C1395      O1396   1.258       .  A
C1395      C1619   1.485       .  S
O1396     Cr1401   1.977       .  S
O1397     Cr1401   2.008       .  S
O1397      C1398   1.267       .  A
C1398      C1439   1.475       .  S
Cr1399     O1402   1.769       .  S
Cr1401     O1402   1.766       .  S
O1403     Cr1421   1.987       .  S
O1403      C1411   1.263       .  A
O1404     Cr1421   1.993       .  S
O1404      C1405   1.262       .  A
C1405      O1406   1.262       .  A
C1405      C1459   1.471       .  S
O1406     Cr1422   1.994       .  S
O1407     Cr1422   1.985       .  S
O1407      C1408   1.265       .  A
C1408      O1409   1.263       .  A
C1408      C1469   1.484       .  S
O1409     Cr1423   1.999       .  S
O1410     Cr1423   1.981       .  S
O1410      C1411   1.260       .  A
C1411      C1429   1.484       .  S
O1412     Cr1421   1.987       .  S
O1412      C1420   1.261       .  A
O1413     Cr1421   1.993       .  S
O1413      C1414   1.260       .  A
C1414      O1415   1.264       .  A
C1414      C1449   1.485       .  S
O1415     Cr1422   1.981       .  S
O1416     Cr1422   1.990       .  S
O1416      C1417   1.261       .  A
C1417      O1418   1.260       .  A
C1417      C1476   1.472       .  S
O1418     Cr1423   1.979       .  S
O1419     Cr1423   1.998       .  S
O1419      C1420   1.265       .  A
C1420      C1436   1.482       .  S
Cr1421     O1424   1.768       .  S
Cr1422     O1424   1.765       .  S
Cr1423     O1424   1.766       .  S
C1425      C1426   1.410       .  A
C1425      C1430   1.399       .  A
C1425      H1432   1.083       .  S
C1426      C1427   1.413       .  A
C1427      C1428   1.392       .  A
C1427     Br1434   1.925       .  S
C1428      C1429   1.407       .  A
C1428      H1433   1.083       .  S
C1429      C1430   1.413       .  A
C1430     Br1431   1.923       .  S
C1435      C1436   1.407       .  A
C1435      C1440   1.398       .  A
C1435      H1442   1.084       .  S
C1436      C1437   1.412       .  A
C1437      C1438   1.401       .  A
C1437     Br1444   1.920       .  S
C1438      C1439   1.403       .  A
C1438      H1443   1.084       .  S
C1439      C1440   1.407       .  A
C1440     Br1441   1.920       .  S
C1445      C1450   1.398   1_545  A
C1445      H1452   1.084       .  S
C1446      C1447   1.416       .  A
C1447      C1448   1.393       .  A
C1447     Br1454   1.924       .  S
C1448      H1453   1.083       .  S
C1449      C1450   1.420       .  A
C1450     Br1451   1.925       .  S
C1455      C1456   1.406       .  A
C1455      C1460   1.391       .  A
C1455      H1462   1.083       .  S
C1457      C1458   1.406       .  A
C1457     Br1464   1.919       .  S
C1458      C1459   1.403       .  A
C1458      H1463   1.083       .  S
C1460     Br1461   1.922       .  S
C1465      C1466   1.403       .  A
C1465      C1470   1.400       .  A
C1465      H1472   1.085       .  S
C1466      C1467   1.416       .  A
C1467      C1468   1.397       .  A
C1467     Br1474   1.923       .  S
C1468      C1469   1.402       .  A
C1468      H1473   1.085       .  S
C1469      C1470   1.418       .  A
C1470     Br1471   1.924       .  S
C1475      C1476   1.406       .  A
C1475      C1480   1.395       .  A
C1475      H1482   1.084       .  S
C1476      C1477   1.408       .  A
C1477      C1478   1.395       .  A
C1477     Br1484   1.921       .  S
C1478      C1479   1.406       .  A
C1478      H1483   1.084       .  S
C1479      C1480   1.409       .  A
C1480     Br1481   1.923       .  S
C1485      C1486   1.406       .  A
C1485      C1490   1.392       .  A
C1485      H1492   1.083       .  S
C1486      C1487   1.418       .  A
C1487      C1488   1.400       .  A
C1487     Br1494   1.923       .  S
C1488      C1489   1.402       .  A
C1488      H1493   1.083       .  S
C1489      C1490   1.411       .  A
C1490     Br1491   1.925       .  S
C1495      C1496   1.407       .  A
C1495      C1500   1.393       .  A
C1495      H1502   1.082       .  S
C1496      C1497   1.420       .  A
C1497      C1498   1.407       .  A
C1497     Br1504   1.922       .  S
C1498      C1499   1.405       .  A
C1498      H1503   1.083       .  S
C1499      C1500   1.410       .  A
C1500     Br1501   1.924       .  S
C1505      C1506   1.405       .  A
C1505      C1510   1.400       .  A
C1505      H1512   1.083       .  S
C1506      C1507   1.415       .  A
C1508      C1509   1.404   1_545  A
C1508      H1513   1.083       .  S
C1510     Br1511   1.921       .  S
C1515      C1516   1.408       .  A
C1515      H1522   1.083       .  S
C1516      C1517   1.420       .  A
C1517     Br1524   1.925       .  S
C1518      C1519   1.400       .  A
C1518      H1523   1.084       .  S
C1519      C1520   1.409       .  A
C1520     Br1521   1.921       .  S
C1525      C1526   1.405       .  A
C1525      C1530   1.398       .  A
C1525      H1532   1.083       .  S
C1527      C1528   1.398       .  A
C1527     Br1534   1.922       .  S
C1528      C1529   1.406       .  A
C1528      H1533   1.083       .  S
C1530     Br1531   1.920       .  S
C1535      C1536   1.404       .  A
C1535      C1540   1.398       .  A
C1535      H1542   1.084       .  S
C1536      C1537   1.409       .  A
C1537      C1538   1.398       .  A
C1537     Br1544   1.919       .  S
C1538      C1539   1.404       .  A
C1538      H1543   1.084       .  S
C1539      C1540   1.408       .  A
C1540     Br1541   1.920       .  S
C1545      C1546   1.406       .  A
C1545      C1550   1.395       .  A
C1545      H1552   1.083       .  S
C1546      C1547   1.416       .  A
C1547      C1548   1.401       .  A
C1547     Br1554   1.922       .  S
C1548      C1549   1.405       .  A
C1548      H1553   1.083       .  S
C1549      C1550   1.413       .  A
C1550     Br1551   1.924       .  S
C1555      C1556   1.407       .  A
C1555      C1560   1.396       .  A
C1555      H1562   1.083       .  S
C1556      C1557   1.420       .  A
C1557      C1558   1.401       .  A
C1557     Br1564   1.923       .  S
C1558      C1559   1.402       .  A
C1558      H1563   1.083       .  S
C1559      C1560   1.411       .  A
C1560     Br1561   1.923       .  S
C1565      C1570   1.403       .  A
C1565      H1572   1.083       .  S
C1566      C1567   1.415       .  A
C1567      C1568   1.393   1_565  A
C1567     Br1574   1.925       .  S
C1568      H1573   1.083       .  S
C1569      C1570   1.415       .  A
C1570     Br1571   1.922       .  S
C1575      C1580   1.394       .  A
C1575      H1582   1.084       .  S
C1576      C1577   1.416       .  A
C1577      C1578   1.399       .  A
C1577     Br1584   1.922       .  S
C1578      H1583   1.084       .  S
C1579      C1580   1.414       .  A
C1580     Br1581   1.924       .  S
C1585      C1586   1.405       .  A
C1585      C1590   1.398       .  A
C1585      H1592   1.083       .  S
C1586      C1587   1.417       .  A
C1587      C1588   1.404       .  A
C1587     Br1594   1.922       .  S
C1588      C1589   1.406       .  A
C1588      H1593   1.083       .  S
C1589      C1590   1.414       .  A
C1590     Br1591   1.923       .  S
C1595      C1596   1.406       .  A
C1595      C1600   1.401       .  A
C1595      H1602   1.083       .  S
C1596      C1597   1.416       .  A
C1597      C1598   1.397       .  A
C1597     Br1604   1.923       .  S
C1598      C1599   1.404       .  A
C1598      H1603   1.084       .  S
C1599      C1600   1.414       .  A
C1600     Br1601   1.922       .  S
C1605      H1612   1.083       .  S
C1606      C1607   1.412   1_465  A
C1607     Br1614   1.922       .  S
C1608      C1609   1.406   1_656  A
C1608      H1613   1.083       .  S
C1610     Br1611   1.923       .  S
C1615      C1616   1.407   1_655  A
C1615      C1620   1.397   1_556  A
C1615      H1622   1.083       .  S
C1617      C1618   1.397   1_556  A
C1617     Br1624   1.922       .  S
C1618      H1623   1.083       .  S
C1619      C1620   1.414       .  A
C1620     Br1621   1.922       .  S
C1625      C1626   1.408       .  A
C1625      C1630   1.401       .  A
C1625      H1632   1.082       .  S
C1626      C1627   1.421       .  A
C1627      C1628   1.396       .  A
C1627     Br1634   1.925       .  S
C1628      C1629   1.400       .  A
C1628      H1633   1.083       .  S
C1629      C1630   1.410       .  A
C1630     Br1631   1.920       .  S
C1635      C1636   1.406       .  A
C1635      C1640   1.395       .  A
C1635      H1642   1.083       .  S
C1636      C1637   1.415       .  A
C1637      C1638   1.404       .  A
C1637     Br1644   1.922       .  S
C1638      C1639   1.408       .  A
C1638      H1643   1.083       .  S
C1639      C1640   1.414       .  A
C1640     Br1641   1.924       .  S
C1645      C1646   1.403       .  A
C1645      H1652   1.083       .  S
C1646      C1647   1.410       .  A
C1647     Br1654   1.918       .  S
C1648      C1649   1.408       .  A
C1648      H1653   1.082       .  S
C1649      C1650   1.417       .  A
C1650     Br1651   1.925       .  S
C1655      C1660   1.401       .  A
C1655      H1662   1.083       .  S
C1656      C1657   1.419       .  A
C1657      C1658   1.397       .  A
C1657     Br1664   1.924       .  S
C1658      H1663   1.084   1_565  S
C1659      C1660   1.410       .  A
C1660     Br1661   1.921       .  S
