geometry optimzed in LAMMPS
_audit_creation_date              2020-12-01 
_audit_creation_method            'lammps2cif' 
_symmetry_space_group_name_H-M    'P1' 
_symmetry_Int_Tables_number       1 
_symmetry_cell_setting            triclinic 
loop_ 
_symmetry_equiv_pos_as_xyz 
  x,y,z 
_cell_length_a                    42.74751684 
_cell_length_b                    42.56914794406307 
_cell_length_c                    32.7936388883024 
_cell_angle_alpha                 90.22411153477917 
_cell_angle_beta                  89.9230857919944 
_cell_angle_gamma                 120.54600833416913 
loop_ 
_atom_site_label 
_atom_site_type_symbol 
_atom_site_fract_x 
_atom_site_fract_y 
_atom_site_fract_z 
_atom_site_charge 
Fe1        Fe  0.53785476  0.60799453  0.25383096     1.65800
Fe2        Fe  0.49855442  0.66064701  0.24947271     1.73200
Fe3        Fe  0.59192131  0.70115769  0.24850021     1.54400
O4          O  0.61174211  0.68436832  0.29631805    -0.82600
O5          O  0.51799321  0.69821876  0.20258930    -0.80900
O6          O  0.57599609  0.62381866  0.29913223    -0.85100
O7          O  0.57614240  0.61930689  0.21003620    -0.80000
O8          O  0.57899767  0.72855834  0.29157083    -0.81800
O9          O  0.47313917  0.62038798  0.20564190    -0.84500
C10         C  0.60312507  0.64739864  0.19518532     0.96300
C11         C  0.60250368  0.65359367  0.31191050     1.03700
O12         O  0.54281734  0.65665606  0.25057497    -1.13500
O13         O  0.47276744  0.62332006  0.29605401    -0.75900
O14         O  0.49926383  0.58991490  0.29887626    -0.79400
O15         O  0.61173670  0.67958313  0.20556827    -0.80100
C16         C  0.47607957  0.59781565  0.31134126     0.95200
O17         O  0.49906570  0.58635962  0.20842609    -0.78000
O18         O  0.51857153  0.70144806  0.29304261    -0.83200
C19         C  0.54864329  0.71984978  0.18669695     0.97800
C20         C  0.54987093  0.72555678  0.30547545     1.03700
O21         O  0.57814215  0.72356257  0.20047598    -0.78900
C22         C  0.47652787  0.59403261  0.19309844     1.02000
Fe23       Fe  0.37188717  0.44367064  0.99939349     1.65800
Fe24       Fe  0.32075592  0.48446605  0.50098822     1.73200
Fe25       Fe  0.27881224  0.39075497  0.50170832     1.54400
O26         O  0.29716453  0.36964376  0.45643580    -0.82600
O27         O  0.28130289  0.46569769  0.04533131    -0.80900
O28         O  0.35718299  0.40730568  0.45225879    -0.85100
O29         O  0.35806103  0.40351830  0.04195210    -0.80000
O30         O  0.25420759  0.40436127  0.45608556    -0.81800
O31         O  0.35910121  0.50836071  0.04737721    -0.84500
C32         C  0.32931601  0.37911921  0.05879351     0.96300
C33         C  0.32781675  0.38004146  0.44000135     1.03700
O34         O  0.32373427  0.43957651  0.50071423    -1.13500
O35         O  0.35943918  0.51013249  0.45611527    -0.75900
O36         O  0.39356162  0.48455277  0.45678343    -0.79400
O37         O  0.29781380  0.37181974  0.04809258    -0.80100
C38         C  0.38611871  0.50779768  0.44327071     0.95200
O39         O  0.39155495  0.48064411  0.04652340    -0.78000
O40         O  0.28212541  0.46520101  0.45504179    -0.83200
C41         C  0.25778922  0.43491379  0.05932747     0.97800
C42         C  0.25832697  0.43393604  0.44170720     1.03700
O43         O  0.25441491  0.40516648  0.04666576    -0.78900
C44         C  0.38413313  0.50360801  0.06148821     1.02000
Fe45       Fe  0.06804888  0.44969774  0.24535121     1.65800
Fe46       Fe  0.15992122  0.48745239  0.25029167     1.73200
Fe47       Fe  0.10384719  0.39375487  0.25047183     1.54400
O48         O  0.06152893  0.37397100  0.29319688    -0.82600
O49         O  0.17748086  0.46799887  0.20378448    -0.80900
O50         O  0.03984940  0.41152749  0.28872942    -0.85100
O51         O  0.04440253  0.41184027  0.19937026    -0.80000
O52         O  0.14007079  0.40606838  0.29841582    -0.81800
O53         O  0.14978116  0.51652055  0.20693987    -0.84500
C54         C  0.04642692  0.38487894  0.18630642     0.96300
C55         C  0.03896350  0.38372900  0.30347655     1.03700
O56         O  0.11062411  0.44356793  0.24884605    -1.13500
O57         O  0.14673316  0.51141960  0.29693426    -0.75900
O58         O  0.08688612  0.48840047  0.29104416    -0.79400
O59         O  0.06716896  0.37493522  0.20201911    -0.80100
C60         C  0.11730671  0.50959548  0.30776218     0.95200
O61         O  0.08986869  0.48872526  0.20123135    -0.78000
O62         O  0.17869993  0.46576246  0.29341278    -0.83200
C63         C  0.17018476  0.43651458  0.19230082     0.97800
C64         C  0.16897029  0.43496291  0.30913439     1.03700
O65         O  0.14499448  0.40714727  0.20798820    -0.78900
C66         C  0.12136207  0.51358371  0.19122805     1.02000
Fe67       Fe  0.53697597  0.91704574  0.00069870     1.65800
Fe68       Fe  0.49863741  0.82479030  0.49748933     1.73200
Fe69       Fe  0.59159277  0.87990477  0.49969168     1.54400
O70         O  0.61001786  0.91762725  0.45270266    -0.82600
O71         O  0.51950470  0.80352134  0.03932384    -0.80900
O72         O  0.58019410  0.94733106  0.46239553    -0.85100
O73         O  0.56932673  0.93725957  0.05108504    -0.80000
O74         O  0.57861853  0.83953124  0.45580111    -0.81800
O75         O  0.47397325  0.83491876  0.04614898    -0.84500
C76         C  0.59803007  0.93818083  0.06259818     0.96300
C77         C  0.60441589  0.94350517  0.44470836     1.03700
O78         O  0.54242941  0.87381263  0.49918472    -1.13500
O79         O  0.47172348  0.83984463  0.45560292    -0.75900
O80         O  0.50332791  0.90039364  0.45046375    -0.79400
O81         O  0.61123776  0.92105195  0.04435022    -0.80100
C82         C  0.47758553  0.86940953  0.43907532     0.95200
O83         O  0.49322489  0.89386710  0.03965393    -0.78000
O84         O  0.51830734  0.80899458  0.44878408    -0.83200
C85         C  0.54986136  0.81366494  0.05661431     0.97800
C86         C  0.54964900  0.81541063  0.43836416     1.03700
O87         O  0.57869029  0.84260290  0.04621380    -0.78900
C88         C  0.47277589  0.86314572  0.05597726     1.02000
Fe89       Fe  0.91807433  0.37609113  0.99827921     1.65800
Fe90       Fe  0.82599866  0.32015963  0.50224057     1.73200
Fe91       Fe  0.88176393  0.28338440  0.49997860     1.54400
O92         O  0.92039591  0.30408059  0.45344933    -0.82600
O93         O  0.80832585  0.28097635  0.04677502    -0.80900
O94         O  0.94024748  0.36368955  0.44980725    -0.85100
O95         O  0.94728438  0.36478202  0.03886248    -0.80000
O96         O  0.84220706  0.25691147  0.45525331    -0.81800
O97         O  0.83989321  0.35872348  0.04776223    -0.84500
C98         C  0.94657203  0.33711014  0.05388852     0.96300
C99         C  0.93965378  0.33524127  0.43714257     1.03700
O100        O  0.87524713  0.32643306  0.50030619    -1.13500
O101        O  0.83595196  0.35784188  0.45722097    -0.75900
O102        O  0.89576899  0.39477876  0.45649171    -0.79400
O103        O  0.92238920  0.30468901  0.04439522    -0.80100
C104        C  0.86436205  0.38502180  0.44319513     0.95200
O105        O  0.90034380  0.39370184  0.04691854    -0.78000
O106        O  0.80666577  0.28124020  0.45700572    -0.83200
C107        C  0.81673562  0.25818238  0.05959560     0.97800
C108        C  0.81531647  0.25909217  0.44230120     1.03700
O109        O  0.84389830  0.25676904  0.04611653    -0.78900
C110        C  0.86950869  0.38461649  0.06189776     1.02000
Fe111      Fe  0.60902138  0.06547599  0.25592143     1.65800
Fe112      Fe  0.66390241  0.15778184  0.24795728     1.73200
Fe113      Fe  0.70161232  0.10296136  0.25130169     1.54400
O114        O  0.68315718  0.06580056  0.29889158    -0.82600
O115        O  0.70259077  0.17496071  0.20278283    -0.80900
O116        O  0.62308582  0.04123222  0.30063605    -0.85100
O117        O  0.61920198  0.03799400  0.21141541    -0.80000
O118        O  0.72861505  0.14393161  0.29446468    -0.81800
O119        O  0.62556137  0.14247357  0.20221279    -0.84500
C120        C  0.64683083  0.03870517  0.19615292     0.96300
C121        C  0.65213969  0.04369937  0.31352300     1.03700
O122        O  0.65828035  0.10873690  0.25170065    -1.13500
O123        O  0.62601307  0.14812131  0.29291476    -0.75900
O124        O  0.59364769  0.08798891  0.30185571    -0.79400
O125        O  0.67914146  0.06115930  0.20779531    -0.80100
C126        C  0.60203638  0.12017541  0.31160638     0.95200
O127        O  0.58768307  0.08301317  0.21071779    -0.78000
O128        O  0.70310319  0.17845286  0.29296498    -0.83200
C129        C  0.72492583  0.16607090  0.18967958     0.97800
C130        C  0.72625105  0.17099077  0.30701175     1.03700
O131        O  0.72703970  0.13961686  0.20415199    -0.78900
C132        C  0.59752384  0.11265044  0.19203052     1.02000
Fe133      Fe  0.91680254  0.53564471  0.25376443     1.65800
Fe134      Fe  0.82464054  0.49745073  0.24982662     1.73200
Fe135      Fe  0.88014854  0.59105853  0.24991813     1.54400
O136        O  0.91825137  0.61048215  0.29704979    -0.82600
O137        O  0.80681516  0.51808575  0.20415663    -0.80900
O138        O  0.93995504  0.57264264  0.30018988    -0.85100
O139        O  0.94502893  0.57487362  0.21085206    -0.80000
O140        O  0.84007016  0.57824745  0.29372704    -0.81800
O141        O  0.83847472  0.47242598  0.20464480    -0.84500
C142        C  0.94398611  0.60138024  0.19496458     0.96300
C143        C  0.93856925  0.60001382  0.31284198     1.03700
O144        O  0.87382678  0.54141486  0.25119565    -1.13500
O145        O  0.83505610  0.47008660  0.29527435    -0.75900
O146        O  0.89503161  0.49563225  0.29705205    -0.79400
O147        O  0.92091389  0.61024099  0.20571814    -0.80100
C148        C  0.86367290  0.47206239  0.30921757     0.95200
O149        O  0.89865154  0.49764484  0.20764405    -0.78000
O150        O  0.80565013  0.51747596  0.29494313    -0.83200
C151        C  0.81612363  0.54911213  0.18914009     0.97800
C152        C  0.81392289  0.54886138  0.30813561     1.03700
O153        O  0.84309012  0.57822372  0.20282031    -0.78900
C154        C  0.86802917  0.47536824  0.19217835     1.02000
Fe155      Fe  0.44979250  0.06852191  0.99535670     1.65800
Fe156      Fe  0.48711674  0.16032657  0.50297664     1.73200
Fe157      Fe  0.39441310  0.10473279  0.49903866     1.54400
O158        O  0.37445803  0.06379436  0.45480196    -0.82600
O159        O  0.46677275  0.17436685  0.05230179    -0.80900
O160        O  0.41761435  0.04985828  0.44443345    -0.85100
O161        O  0.40664210  0.03759570  0.03319242    -0.80000
O162        O  0.40754325  0.14215416  0.45267792    -0.81800
O163        O  0.51347214  0.14415381  0.04428315    -0.84500
C164        C  0.38306552  0.04122469  0.05274588     0.96300
C165        C  0.38793780  0.04783949  0.43489561     1.03700
O166        O  0.44377248  0.11131678  0.49920088    -1.13500
O167        O  0.51250662  0.15201900  0.45380833    -0.75900
O168        O  0.49397574  0.09297923  0.45694926    -0.79400
O169        O  0.37675165  0.06679334  0.04570648    -0.80100
C170        C  0.51380783  0.12437412  0.44181255     0.95200
O171        O  0.48280692  0.08350133  0.04608305    -0.78000
O172        O  0.46636040  0.18231786  0.46216766    -0.83200
C173        C  0.43525325  0.16801101  0.06160795     0.97800
C174        C  0.43627555  0.17203106  0.44425135     1.03700
O175        O  0.40681321  0.14458879  0.04294041    -0.78900
C176        C  0.50752241  0.11415640  0.05962322     1.02000
Fe177      Fe  0.60917312  0.53770366  0.00248094     1.65800
Fe178      Fe  0.66111786  0.49818584  0.49863887     1.73200
Fe179      Fe  0.70193939  0.59132584  0.49880946     1.54400
O180        O  0.67970553  0.61354194  0.45956035    -0.82600
O181        O  0.69781465  0.51635458  0.04577362    -0.80900
O182        O  0.62029454  0.57359270  0.45613236    -0.85100
O183        O  0.62549936  0.57856820  0.04540449    -0.80000
O184        O  0.72221952  0.57872074  0.44787799    -0.81800
O185        O  0.62087259  0.47056979  0.04201733    -0.84500
C186        C  0.65515062  0.60232510  0.06168045     0.96300
C187        C  0.64814780  0.60306106  0.44549789     1.03700
O188        O  0.65739970  0.54244928  0.49989883    -1.13500
O189        O  0.62454636  0.47537412  0.45126789    -0.75900
O190        O  0.58661040  0.49629498  0.45932485    -0.79400
O191        O  0.68611300  0.60883717  0.04960398    -0.80100
C192        C  0.59643733  0.47635175  0.44108325     0.95200
O193        O  0.59183412  0.50118055  0.04961230    -0.78000
O194        O  0.70217418  0.51943728  0.45536483    -0.83200
C195        C  0.72502047  0.54699194  0.05505111     0.97800
C196        C  0.72154661  0.54966810  0.43721818     1.03700
O197        O  0.73091055  0.57646143  0.03821016    -0.78900
C198        C  0.59751527  0.47585571  0.05975606     1.02000
Fe199      Fe  0.44454965  0.37362299  0.24877264     1.65800
Fe200      Fe  0.48317938  0.32045365  0.25062816     1.73200
Fe201      Fe  0.38993461  0.28050430  0.25125202     1.54400
O202        O  0.37140975  0.30060043  0.29737532    -0.82600
O203        O  0.46219164  0.27843261  0.20865181    -0.80900
O204        O  0.40488179  0.36095857  0.29137012    -0.85100
O205        O  0.40787930  0.35990953  0.20223202    -0.80000
O206        O  0.40381333  0.25539486  0.29620436    -0.81800
O207        O  0.50739122  0.35617864  0.20250166    -0.84500
C208        C  0.37989417  0.33082551  0.19053641     0.96300
C209        C  0.37940659  0.33259290  0.30783608     1.03700
O210        O  0.43913651  0.32475109  0.25012357    -1.13500
O211        O  0.51008000  0.36154895  0.29339677    -0.75900
O212        O  0.48126728  0.39277949  0.29607114    -0.79400
O213        O  0.36952998  0.29986125  0.20643381    -0.80100
C214        C  0.50504022  0.38591379  0.30907638     0.95200
O215        O  0.48480971  0.39310395  0.20517107    -0.78000
O216        O  0.46432444  0.28420292  0.29841452    -0.83200
C217        C  0.43121374  0.25586880  0.19407843     0.97800
C218        C  0.43328828  0.26009071  0.31128985     1.03700
O219        O  0.40221580  0.25473632  0.20540728    -0.78900
C220        C  0.50548413  0.38315271  0.18938385     1.02000
Fe221      Fe  0.06598882  0.60857646  0.00210059     1.65800
Fe222      Fe  0.15805565  0.66430213  0.49738378     1.73200
Fe223      Fe  0.10284236  0.70137576  0.49918056     1.54400
O224        O  0.06481344  0.68035719  0.45252709    -0.82600
O225        O  0.17763016  0.70461385  0.04131916    -0.80900
O226        O  0.03709692  0.62000096  0.46061950    -0.85100
O227        O  0.04413945  0.62154453  0.05039733    -0.80000
O228        O  0.14272750  0.72934166  0.45489492    -0.81800
O229        O  0.14832568  0.62795034  0.04380157    -0.84500
C230        C  0.04395897  0.64990864  0.06167050     0.96300
C231        C  0.04033298  0.64805070  0.44318817     1.03700
O232        O  0.10899924  0.65812014  0.49939796    -1.13500
O233        O  0.14399075  0.62423943  0.45358237    -0.75900
O234        O  0.08359072  0.58969076  0.45445588    -0.79400
O235        O  0.06222544  0.68046458  0.04383033    -0.80100
C236        C  0.11442514  0.59746295  0.44055567     0.95200
O237        O  0.08856306  0.59036630  0.04437999    -0.78000
O238        O  0.17486326  0.70166069  0.45105811    -0.83200
C239        C  0.16743348  0.72478497  0.05824408     0.97800
C240        C  0.16837693  0.72616119  0.43966186     1.03700
O241        O  0.14005265  0.72642746  0.04609587    -0.78900
C242        C  0.12007750  0.60057531  0.05784082     1.02000
Fe243      Fe  0.37692871  0.91986289  0.24559627     1.65800
Fe244      Fe  0.32112240  0.82747879  0.24945650     1.73200
Fe245      Fe  0.28433554  0.88317522  0.24793847     1.54400
O246        O  0.30553517  0.92340665  0.29259730    -0.82600
O247        O  0.28235540  0.80847419  0.20374733    -0.80900
O248        O  0.36550418  0.94855176  0.28734361    -0.85100
O249        O  0.36430110  0.94244159  0.19788582    -0.80000
O250        O  0.25778369  0.84537849  0.29398987    -0.81800
O251        O  0.35926613  0.83761196  0.20452247    -0.84500
C252        C  0.33572931  0.94127568  0.18532238     0.96300
C253        C  0.33768388  0.94695279  0.30313954     1.03700
O254        O  0.32739587  0.87682202  0.24772235    -1.13500
O255        O  0.35933239  0.84141056  0.29558863    -0.75900
O256        O  0.39507192  0.90186134  0.29343601    -0.79400
O257        O  0.30476923  0.92174557  0.20164816    -0.80100
C258        C  0.38567762  0.87114253  0.30928025     0.95200
O259        O  0.39548570  0.89778154  0.20279075    -0.78000
O260        O  0.28192683  0.80978741  0.29429302    -0.83200
C261        C  0.26012636  0.81714756  0.18940287     0.97800
C262        C  0.25958287  0.81855100  0.30790880     1.03700
O263        O  0.25779730  0.84375051  0.20336586    -0.78900
C264        C  0.38619149  0.86611881  0.19005734     1.02000
C265        C  0.19220446  0.75193401  0.40747014    -0.07100
C266        C  0.17761028  0.76517645  0.37839753    -0.18200
C267        C  0.19861852  0.78691079  0.34558685     0.10100
C268        C  0.23549137  0.79657301  0.34204807    -0.07000
C269        C  0.25026717  0.78436366  0.37189414    -0.18200
C270        C  0.22939896  0.76256511  0.40448624     0.10200
S271        S  0.17613709  0.79944536  0.30811643    -0.33200
S272        S  0.25161796  0.75054545  0.44320585    -0.33200
H273        H  0.28450958  0.76245535  0.42231813     0.28200
H274        H  0.19296924  0.79366573  0.27434755     0.28200
H275        H  0.14923680  0.75731447  0.38026265     0.18800
H276        H  0.27868726  0.79247849  0.36992382     0.18800
C277        C  0.23544939  0.79432407  0.15576026    -0.07100
C278        C  0.22768564  0.75811508  0.15227996    -0.18200
C279        C  0.20425110  0.73451604  0.12230122     0.10100
C280        C  0.18875963  0.74734204  0.09353606    -0.07000
C281        C  0.19546684  0.78307878  0.09746356    -0.18200
C282        C  0.21866643  0.80671631  0.12785252     0.10200
S283        S  0.19383025  0.68779089  0.12396092    -0.33200
S284        S  0.22652826  0.85251332  0.12771820    -0.33200
H285        H  0.26419796  0.86909924  0.13305039     0.28200
H286        H  0.15716785  0.67272364  0.11284548     0.28200
H287        H  0.23920559  0.74757276  0.17389630     0.18800
H288        H  0.18364980  0.79318152  0.07567598     0.18800
C289        C  0.52783275  0.40732971  0.34394133    -0.07100
C290        C  0.56561528  0.42294586  0.34121251    -0.18200
C291        C  0.58870504  0.44615606  0.37182734     0.10100
C292        C  0.57373536  0.45304811  0.40692336    -0.07000
C293        C  0.53583485  0.43689977  0.40981360    -0.18200
C294        C  0.51280916  0.41395714  0.37906787     0.10200
S295        S  0.63692656  0.46800975  0.36278181    -0.33200
S296        S  0.46448833  0.39286175  0.38727764    -0.33200
H297        H  0.45526907  0.35986887  0.36751788     0.28200
H298        H  0.64493952  0.50202684  0.37876032     0.28200
H299        H  0.57734016  0.41832343  0.31415638     0.18800
H300        H  0.52394595  0.44153238  0.43671371     0.18800
C301        C  0.57480486  0.45104524  0.09272062    -0.07100
C302        C  0.53766511  0.43953049  0.09275270    -0.18200
C303        C  0.51429234  0.41607085  0.12268647     0.10100
C304        C  0.52824420  0.40421805  0.15434244    -0.07000
C305        C  0.56523374  0.41495873  0.15389140    -0.18200
C306        C  0.58871859  0.43858614  0.12381464     0.10200
S307        S  0.46671845  0.40129081  0.11779505    -0.33200
S308        S  0.63637060  0.45381228  0.12852432    -0.33200
H309        H  0.64858805  0.48983628  0.11612907     0.28200
H310        H  0.45419914  0.36614593  0.13337185     0.28200
H311        H  0.52654531  0.44838259  0.06870013     0.18800
H312        H  0.57626584  0.40631878  0.17823585     0.18800
C313        C  0.36895562  0.02593314  0.39876400    -0.07100
C314        C  0.33793331  0.99140519  0.40408535    -0.18200
C315        C  0.32551204  0.96530388  0.37266583     0.10100
C316        C  0.34423220  0.97426357  0.33500730    -0.07000
C317        C  0.37320031  0.00998180  0.32887594    -0.18200
C318        C  0.38556060  0.03583931  0.36015846     0.10200
S319        S  0.28829696  0.92026138  0.38399392    -0.33200
S320        S  0.42397134  0.08048746  0.34971955    -0.33200
H321        H  0.41592245  0.09914540  0.37957835     0.28200
H322        H  0.30470633  0.90184646  0.36678243     0.28200
H323        H  0.32522802  0.98370044  0.43384631     0.18800
H324        H  0.38725142  0.01744751  0.29983044     0.18800
C325        C  0.33929346  0.96338914  0.14952024    -0.07100
C326        C  0.34401675  0.99818787  0.15571239    -0.18200
C327        C  0.35656826  0.02398430  0.12423212     0.10100
C328        C  0.36335700  0.01429831  0.08528398    -0.07000
C329        C  0.35568688  0.97843884  0.07859784    -0.18200
C330        C  0.34435659  0.95312786  0.11019843     0.10200
S331        S  0.36702986  0.06955780  0.13698867    -0.33200
S332        S  0.33912826  0.90919396  0.09808618    -0.33200
H333        H  0.32839871  0.89249490  0.13636632     0.28200
H334        H  0.40155107  0.08685107  0.11858042     0.28200
H335        H  0.34068552  0.00626085  0.18605746     0.18800
H336        H  0.36047834  0.97057988  0.04879174     0.18800
C337        C  0.43177123  0.18879325  0.09583706    -0.07100
C338        C  0.45084351  0.19240920  0.13193374    -0.18200
C339        C  0.44985311  0.21264595  0.16502922     0.10100
C340        C  0.42929308  0.23013897  0.16228268    -0.07000
C341        C  0.40872936  0.22506796  0.12692138    -0.18200
C342        C  0.41033977  0.20535019  0.09343230     0.10200
S343        S  0.47495569  0.21421860  0.20998666    -0.33200
S344        S  0.38664598  0.20469628  0.04767774    -0.33200
H345        H  0.41358248  0.20764648  0.02061811     0.28200
H346        H  0.45223057  0.21779527  0.23816547     0.28200
H347        H  0.46634980  0.17892305  0.13469425     0.18800
H348        H  0.39280460  0.23815025  0.12445009     0.18800
C349        C  0.43205725  0.23694924  0.34562589    -0.07100
C350        C  0.45627212  0.25391027  0.37820944    -0.18200
C351        C  0.45755167  0.23380255  0.41133952     0.10100
C352        C  0.43470945  0.19536732  0.41153706    -0.07000
C353        C  0.40988062  0.17854917  0.37933435    -0.18200
C354        C  0.40834225  0.19871342  0.34651514     0.10200
S355        S  0.48710863  0.25801533  0.45387468    -0.33200
S356        S  0.37640165  0.17351089  0.30633638    -0.33200
H357        H  0.39793534  0.19545637  0.27412357     0.28200
H358        H  0.49939177  0.29357969  0.43976138     0.28200
H359        H  0.47400013  0.28325732  0.37784441     0.18800
H360        H  0.39212069  0.14917902  0.37906577     0.18800
C361        C  0.96223952  0.61993553  0.34750576    -0.07100
C362        C  0.99914633  0.64426542  0.33953091    -0.18200
C363        C  0.02527695  0.65514762  0.37047196     0.10100
C364        C  0.01418308  0.64196261  0.41048605    -0.07000
C365        C  0.97704182  0.61917746  0.41876016    -0.18200
C366        C  0.95103509  0.60816506  0.38781281     0.10200
S367        S  0.07239393  0.68255408  0.35603966    -0.33200
S368        S  0.90439887  0.57650985  0.40098919    -0.33200
H369        H  0.88890066  0.58644214  0.36948523     0.28200
H370        H  0.08501038  0.66462576  0.38121113     0.28200
H371        H  0.00798638  0.65247523  0.30838624     0.18800
H372        H  0.96833815  0.60886512  0.44937761     0.18800
C373        C  0.97160131  0.62211638  0.16303622    -0.07100
C374        C  0.00611917  0.62609928  0.16797367    -0.18200
C375        C  0.03145978  0.63854236  0.13631476     0.10100
C376        C  0.02220898  0.64659920  0.09810304    -0.07000
C377        C  0.98882203  0.64513410  0.09366858    -0.18200
C378        C  0.96366255  0.63352657  0.12592663     0.10200
S379        S  0.07466826  0.64203437  0.14601066    -0.33200
S380        S  0.92064029  0.63019674  0.11647279    -0.33200
H381        H  0.92375229  0.65202803  0.15031325     0.28200
H382        H  0.09442990  0.66920255  0.11688407     0.28200
H383        H  0.01306007  0.61830259  0.19648361     0.18800
H384        H  0.98152214  0.65121113  0.06433358     0.18800
C385        C  0.79457439  0.55054204  0.15386945    -0.07100
C386        C  0.77355987  0.51841734  0.13119139    -0.18200
C387        C  0.75267934  0.51709690  0.09772510     0.10100
C388        C  0.75030591  0.54814944  0.08731851    -0.07000
C389        C  0.77128494  0.58042966  0.10984917    -0.18200
C390        C  0.79354199  0.58212615  0.14236437     0.10200
S391        S  0.73118520  0.47509185  0.06886411    -0.33200
S392        S  0.81789587  0.62478221  0.16939835    -0.33200
H393        H  0.85198202  0.63037026  0.15747671     0.28200
H394        H  0.74040582  0.49255726  0.03070120     0.28200
H395        H  0.77375763  0.49389399  0.13910901     0.18800
H396        H  0.76992425  0.60451508  0.10259122     0.18800
C397        C  0.79193176  0.55085141  0.34192359    -0.07100
C398        C  0.77435957  0.57088600  0.33693402    -0.18200
C399        C  0.75067547  0.57060869  0.36689904     0.10100
C400        C  0.74524506  0.55078867  0.40341343    -0.07000
C401        C  0.76348714  0.53142544  0.40851772    -0.18200
C402        C  0.78667872  0.53129437  0.37836539     0.10200
S403        S  0.72672085  0.59420120  0.35546291    -0.33200
S404        S  0.81062050  0.50723503  0.38740549    -0.33200
H405        H  0.79804231  0.49569968  0.42732171     0.28200
H406        H  0.69427952  0.56911687  0.37513137     0.28200
H407        H  0.77793170  0.58560348  0.30878604     0.18800
H408        H  0.75982265  0.51662684  0.43659276     0.18800
C409        C  0.53969197  0.12815358  0.40955194    -0.07100
C410        C  0.56038683  0.11144532  0.41584998    -0.18200
C411        C  0.58248605  0.11033116  0.38510418     0.10100
C412        C  0.58314425  0.12514088  0.34646536    -0.07000
C413        C  0.56349725  0.14297452  0.34042288    -0.18200
C414        C  0.54202125  0.14487542  0.37161692     0.10200
S415        S  0.60935898  0.08983725  0.39714417    -0.33200
S416        S  0.51547035  0.16565979  0.35999527    -0.33200
H417        H  0.53054665  0.19131971  0.39184058     0.28200
H418        H  0.63828664  0.11162093  0.37068520     0.28200
H419        H  0.55921322  0.09900207  0.44502875     0.18800
H420        H  0.56389750  0.15438276  0.31080187     0.18800
C421        C  0.53055623  0.11445437  0.09408237    -0.07100
C422        C  0.53526602  0.08424605  0.09887450    -0.18200
C423        C  0.55748803  0.08319959  0.12962342     0.10100
C424        C  0.57517508  0.11271537  0.15735846    -0.11800
C425        C  0.57072165  0.14295884  0.15252167    -0.18200
C426        C  0.54843799  0.14397377  0.12188708     0.10200
S427        S  0.56363810  0.04428976  0.13022221    -0.33200
S428        S  0.54208591  0.18262239  0.12211816    -0.33200
H429        H  0.50463436  0.16084459  0.11508445     0.28200
H430        H  0.60096286  0.06468078  0.13935887     0.28200
H431        H  0.52231415  0.06152111  0.07773746     0.18800
H432        H  0.58370332  0.16557499  0.17381043     0.18800
C433        C  0.79332204  0.23582514  0.40775655    -0.07100
C434        C  0.78288195  0.25186924  0.37742802    -0.18200
C435        C  0.76260466  0.23199721  0.34349602     0.10100
C436        C  0.75101993  0.19444987  0.34003668    -0.07000
C437        C  0.76191080  0.17849862  0.37013505    -0.18200
C438        C  0.78256710  0.19858265  0.40395951     0.10200
S439        S  0.75418505  0.25688654  0.30488383    -0.33200
S440        S  0.79234719  0.17449277  0.44223976    -0.33200
H441        H  0.78807689  0.19277892  0.47566390     0.28200
H442        H  0.75965771  0.23897127  0.27188720     0.28200
H443        H  0.79148958  0.28057444  0.37960062     0.18800
H444        H  0.75308525  0.14974334  0.36817356     0.18800
C445        C  0.74919835  0.18774588  0.15593853    -0.07100
C446        C  0.73351752  0.19382010  0.12163596    -0.18200
C447        C  0.75481690  0.21509010  0.08912908     0.10100
C448        C  0.79312135  0.23192146  0.09112379    -0.07000
C449        C  0.80885178  0.22508739  0.12499232    -0.18200
C450        C  0.78737270  0.20356743  0.15757425     0.10200
S451        S  0.73117223  0.21864051  0.04544344    -0.33200
S452        S  0.81043749  0.19942938  0.20140978    -0.33200
H453        H  0.78671794  0.20035153  0.23053017     0.28200
H454        H  0.75566993  0.21917582  0.01639234     0.28200
H455        H  0.70425078  0.18144000  0.11991603     0.18800
H456        H  0.83814214  0.23796619  0.12697325     0.18800
C457        C  0.86159221  0.40550199  0.40858755    -0.07100
C458        C  0.88594090  0.41364518  0.37620110    -0.18200
C459        C  0.88583506  0.43358642  0.34247659     0.10100
C460        C  0.86107839  0.44635932  0.34121970    -0.07000
C461        C  0.83517675  0.43622637  0.37241354    -0.18200
C462        C  0.83559533  0.41659339  0.40643457     0.10200
S463        S  0.91604176  0.44057223  0.30028488    -0.33200
S464        S  0.80393196  0.40868505  0.44700996    -0.33200
H465        H  0.82792960  0.41326817  0.47886662     0.28200
H466        H  0.93523960  0.42565080  0.31876009     0.28200
H467        H  0.90490912  0.40390649  0.37723277     0.18800
H468        H  0.81548934  0.44493871  0.37117673     0.18800
C469        C  0.86795704  0.40568868  0.09675681    -0.07100
C470        C  0.84409509  0.41911242  0.09456442    -0.18200
C471        C  0.84394801  0.44238167  0.12467265     0.10100
C472        C  0.86723417  0.45153244  0.15876136    -0.07000
C473        C  0.89069508  0.43750718  0.16122338    -0.18200
C474        C  0.89115347  0.41458048  0.13085419     0.10200
S475        S  0.81547183  0.46152883  0.11601186    -0.33200
S476        S  0.92105931  0.39669723  0.13806502    -0.33200
H477        H  0.89841301  0.36300146  0.11873542     0.28200
H478        H  0.84073267  0.49647836  0.13091376     0.28200
H479        H  0.82665048  0.41284105  0.06814597     0.18800
H480        H  0.90842141  0.44395728  0.18740267     0.18800
C481        C  0.62567474  0.96999853  0.41256683    -0.07100
C482        C  0.62264288  0.95722092  0.37246489    -0.18200
C483        C  0.63404282  0.98134419  0.33945932     0.10100
C484        C  0.64888114  0.01903502  0.34666289    -0.07000
C485        C  0.65468189  0.03211072  0.38683992    -0.18200
C486        C  0.64337183  0.00800287  0.41985545     0.10200
S487        S  0.62645463  0.96220829  0.28874775    -0.33200
S488        S  0.65069262  0.02713123  0.47053748    -0.33200
H489        H  0.65169347  0.99825919  0.48997228     0.28200
H490        H  0.65457492  0.99345740  0.26986608     0.28200
H491        H  0.60909019  0.92812806  0.36663610     0.18800
H492        H  0.66627007  0.06104277  0.39249299     0.18800
C493        C  0.61554448  0.95972750  0.09958659    -0.07100
C494        C  0.64817394  0.99325032  0.09596989    -0.18200
C495        C  0.66012836  0.01942852  0.12739650     0.10100
C496        C  0.63969658  0.01136859  0.16382907    -0.07000
C497        C  0.60863430  0.97665472  0.16827592    -0.18200
C498        C  0.59620179  0.95103662  0.13670763     0.10200
S499        S  0.69910298  0.06368185  0.11730125    -0.33200
S500        S  0.55399217  0.90873144  0.14503924    -0.33200
H501        H  0.55733360  0.88843825  0.11326770     0.28200
H502        H  0.68348259  0.08336502  0.13309623     0.28200
H503        H  0.66271650  0.00033703  0.06726053     0.18800
H504        H  0.59290016  0.96989309  0.19617080     0.18800
C505        C  0.45306031  0.86838698  0.40603999    -0.07100
C506        C  0.44672688  0.89767043  0.40323042    -0.18200
C507        C  0.42365240  0.89850764  0.37349053     0.10100
C508        C  0.40696652  0.86989268  0.34448474    -0.07000
C509        C  0.41245753  0.84015216  0.34787753    -0.18200
C510        C  0.43532522  0.83919170  0.37786150     0.10200
S511        S  0.41538593  0.93605555  0.37567376    -0.33200
S512        S  0.44272976  0.80123973  0.37634732    -0.33200
H513        H  0.48001198  0.82347975  0.38395661     0.28200
H514        H  0.37840512  0.91496335  0.36512512     0.28200
H515        H  0.45918904  0.91984306  0.42512137     0.18800
H516        H  0.40007190  0.81809864  0.32583499     0.18800
C517        C  0.44732939  0.86097771  0.08822533    -0.07100
C518        C  0.43984483  0.83751985  0.12159510    -0.18200
C519        C  0.41993834  0.83832960  0.15531738     0.10100
C520        C  0.40704047  0.86304094  0.15579205    -0.07000
C521        C  0.41383069  0.88576344  0.12209590    -0.18200
C522        C  0.43267680  0.88426675  0.08806004     0.10200
S523        S  0.41390018  0.80885538  0.19764150    -0.33200
S524        S  0.43542276  0.91159846  0.04473814    -0.33200
H525        H  0.43187713  0.88574826  0.01539256     0.28200
H526        H  0.41660359  0.83344437  0.22814582     0.28200
H527        H  0.45087608  0.81955460  0.12224668     0.18800
H528        H  0.40351212  0.90432327  0.12184404     0.18800
C529        C  0.11793386  0.53270267  0.34163075    -0.07100
C530        C  0.09270756  0.51602296  0.37320592    -0.18200
C531        C  0.09196004  0.53617115  0.40651952     0.10100
C532        C  0.11599750  0.57437125  0.40773161    -0.07000
C533        C  0.14161211  0.59099455  0.37632438    -0.18200
C534        C  0.14267198  0.57066827  0.34321996     0.10200
S535        S  0.06115542  0.51106546  0.44745332    -0.33200
S536        S  0.17487086  0.59504704  0.30311888    -0.33200
H537        H  0.15232079  0.57353003  0.27095661     0.28200
H538        H  0.08506295  0.53208314  0.97871523     0.28200
H539        H  0.07406775  0.48678728  0.37247089     0.18800
H540        H  0.16016321  0.62023478  0.37686927     0.18800
C541        C  0.12430464  0.53983063  0.15993761    -0.07100
C542        C  0.15110302  0.55130600  0.12957372    -0.18200
C543        C  0.15081770  0.57139254  0.09585619     0.10100
C544        C  0.12321039  0.58029391  0.09249635    -0.07000
C545        C  0.09744364  0.56994195  0.12369816    -0.18200
C546        C  0.09835809  0.55100689  0.15775210     0.10200
S547        S  0.18468847  0.58245302  0.05700151    -0.33200
S548        S  0.06639090  0.54319437  0.19803787    -0.33200
H549        H  0.08992117  0.54659427  0.22994721     0.28200
H550        H  0.16110496  0.57598134  0.02402666     0.28200
H551        H  0.17123335  0.54303615  0.13103129     0.18800
H552        H  0.07663809  0.57724574  0.12190432     0.18800
C553        C  0.01020314  0.36293627  0.33412434    -0.07100
C554        C  0.01865856  0.35087441  0.37005673    -0.18200
C555        C  0.99472060  0.33902680  0.40361613     0.10100
C556        C  0.96194452  0.33934157  0.40102719    -0.07000
C557        C  0.95248489  0.34897130  0.36433946    -0.18200
C558        C  0.97567988  0.35992444  0.33074328     0.10200
S559        S  0.00737245  0.32658967  0.45070897    -0.33200
S560        S  0.95968996  0.37050333  0.28477397    -0.33200
H561        H  0.97911073  0.36090503  0.25788395     0.28200
H562        H  0.04048107  0.33093466  0.43677928     0.28200
H563        H  0.04492489  0.35304059  0.37277348     0.18800
H564        H  0.92711001  0.34885842  0.36219390     0.18800
C565        C  0.97512884  0.34399288  0.08418967    -0.07100
C566        C  0.96586979  0.32301006  0.11988500    -0.18200
C567        C  0.99031173  0.33349821  0.15268702     0.10100
C568        C  0.02446038  0.36592611  0.15001369    -0.07000
C569        C  0.03482445  0.38501228  0.11313718    -0.18200
C570        C  0.01087308  0.37412654  0.07998408     0.10200
S571        S  0.97520551  0.30619949  0.19820436    -0.33200
S572        S  0.02619945  0.39936531  0.03273848    -0.33200
H573        H  0.06220901  0.42367405  0.04490311     0.28200
H574        H  0.00979344  0.31373500  0.21056272     0.28200
H575        H  0.93880139  0.29953668  0.12317388     0.18800
H576        H  0.06121136  0.40962145  0.11109927     0.18800
C577        C  0.33031471  0.36107183  0.40387375    -0.07100
C578        C  0.33495999  0.33099909  0.40915016    -0.18200
C579        C  0.34930551  0.31956721  0.37774875     0.10100
C580        C  0.35861836  0.33833743  0.34011549    -0.07000
C581        C  0.35116732  0.36658363  0.33421052    -0.18200
C582        C  0.33714263  0.37805364  0.36551765     0.10200
S583        S  0.35854739  0.28367701  0.38917889    -0.33200
S584        S  0.33143169  0.41659888  0.35583447    -0.33200
H585        H  0.30390137  0.40746715  0.38487112     0.28200
H586        H  0.39311254  0.30087962  0.37097273     0.28200
H587        H  0.33033804  0.31838298  0.43890002     0.18800
H588        H  0.35769425  0.38087931  0.30534123     0.18800
C589        C  0.35865198  0.33430710  0.15739918    -0.07100
C590        C  0.34137762  0.35426629  0.16541581    -0.18200
C591        C  0.32875076  0.36682298  0.13352291     0.10100
C592        C  0.33374473  0.35941078  0.09289005    -0.07000
C593        C  0.34944545  0.33804087  0.08496535    -0.18200
C594        C  0.36150574  0.32504970  0.11677252     0.10200
S595        S  0.31017433  0.39571450  0.14460798    -0.33200
S596        S  0.38362557  0.30007322  0.10347606    -0.33200
H597        H  0.36883329  0.27592777  0.13640724     0.28200
H598        H  0.30933526  0.39205975  0.18727671     0.28200
H599        H  0.33988251  0.36192161  0.19658177     0.18800
H600        H  0.35377839  0.33280334  0.05369560     0.18800
C601        C  0.23481884  0.43227022  0.40752662    -0.07100
C602        C  0.25126072  0.45552859  0.37419633    -0.18200
C603        C  0.23069708  0.45583773  0.34100555     0.10100
C604        C  0.19236105  0.43308448  0.34152572    -0.07000
C605        C  0.17608301  0.40879578  0.37416950    -0.18200
C606        C  0.19672981  0.40830089  0.40714244     0.10200
S607        S  0.25411641  0.48395021  0.29733734    -0.33200
S608        S  0.17247931  0.37775775  0.44858063    -0.33200
H609        H  0.19444716  0.40144427  0.47973349     0.28200
H610        H  0.28976693  0.49724017  0.31142767     0.28200
H611        H  0.28050803  0.47318825  0.37400870     0.18800
H612        H  0.14684046  0.39099610  0.37480368     0.18800
C613        C  0.23348621  0.43385532  0.09197384    -0.07100
C614        C  0.22791413  0.41199787  0.12630353    -0.18200
C615        C  0.20795450  0.41268925  0.15985194     0.10100
C616        C  0.19185155  0.43455357  0.15846099    -0.07000
C617        C  0.19698244  0.45597028  0.12390522    -0.18200
C618        C  0.21730349  0.45571022  0.09066611     0.10200
S619        S  0.20633759  0.38729447  0.20448158    -0.33200
S620        S  0.22050091  0.48306986  0.04719143    -0.33200
H621        H  0.22085955  0.45920067  0.01772189     0.28200
H622        H  0.20762415  0.41279083  0.23288397     0.28200
H623        H  0.24054303  0.39550201  0.12776057     0.18800
H624        H  0.18456535  0.47270527  0.12255060     0.18800
C625        C  0.64258515  0.62540252  0.41529970    -0.07100
C626        C  0.66339601  0.63596729  0.37946266    -0.18200
C627        C  0.65294540  0.64857378  0.34559471     0.10100
C628        C  0.62149365  0.65146872  0.34810823    -0.07000
C629        C  0.60273719  0.64407731  0.38507431    -0.18200
C630        C  0.61278601  0.63110860  0.41858886     0.10200
S631        S  0.67851585  0.65655166  0.29912435    -0.33200
S632        S  0.58474741  0.62022323  0.46357355    -0.33200
H633        H  0.61072486  0.62245627  0.49131191     0.28200
H634        H  0.66739354  0.67872407  0.28007337     0.28200
H635        H  0.68623168  0.63174408  0.37672211     0.18800
H636        H  0.57851357  0.64615511  0.38702266     0.18800
C637        C  0.65237368  0.62127615  0.09769008    -0.07100
C638        C  0.64625311  0.60339883  0.13508009    -0.18200
C639        C  0.63270236  0.61333632  0.16846072     0.10100
C640        C  0.62464714  0.64153273  0.16409010    -0.07000
C641        C  0.63389748  0.66157371  0.12775128    -0.18200
C642        C  0.64782453  0.65178819  0.09449983     0.10200
S643        S  0.62490232  0.58913620  0.21608084    -0.33200
S644        S  0.65716331  0.67787476  0.04829453    -0.33200
H645        H  0.68112728  0.66796213  0.03129427     0.28200
H646        H  0.63985394  0.56769528  0.20435123     0.28200
H647        H  0.64997528  0.58011518  0.13727856     0.18800
H648        H  0.62833515  0.68359391  0.12443420     0.18800
C649        C  0.45326067  0.57132240  0.15908753    -0.07100
C650        C  0.41590405  0.55901809  0.16009645    -0.18200
C651        C  0.39240253  0.53600061  0.12953571     0.10100
C652        C  0.40668092  0.52620232  0.09612035    -0.07000
C653        C  0.44400194  0.53833394  0.09541567    -0.18200
C654        C  0.46734571  0.56077164  0.12619482     0.10200
S655        S  0.34440267  0.51813432  0.13644247    -0.33200
S656        S  0.51502947  0.57616797  0.12066925    -0.33200
H657        H  0.52742104  0.61150522  0.13595683     0.28200
H658        H  0.33356173  0.48330908  0.12052649     0.28200
H659        H  0.40473373  0.56628694  0.18568589     0.18800
H660        H  0.45534158  0.53102346  0.07002312     0.18800
C661        C  0.40948085  0.53302837  0.41107686    -0.07100
C662        C  0.39311525  0.53777037  0.37636705    -0.18200
C663        C  0.41406403  0.55866057  0.34328256     0.10100
C664        C  0.45233546  0.57616116  0.34532600    -0.07000
C665        C  0.46866318  0.57187906  0.38029648    -0.18200
C666        C  0.44779290  0.55096678  0.41325958     0.10200
S667        S  0.39031860  0.55979345  0.29839539    -0.33200
S668        S  0.47176742  0.54925345  0.45767490    -0.33200
H669        H  0.44653912  0.54800005  0.48620113     0.28200
H670        H  0.41505211  0.55960080  0.27019159     0.28200
H671        H  0.36374900  0.52374979  0.37423460     0.18800
H672        H  0.49802354  0.58538177  0.38216212     0.18800
C673        C  0.55002119  0.74241924  0.15135077    -0.07100
C674        C  0.57929302  0.77835261  0.14817194    -0.18200
C675        C  0.58014546  0.80229546  0.11826722     0.10100
C676        C  0.55121709  0.79014239  0.08970661    -0.07000
C677        C  0.52251480  0.75369734  0.09231603    -0.18200
C678        C  0.52181711  0.72982136  0.12210312     0.10200
S679        S  0.61828848  0.84825632  0.12000515    -0.33200
S680        S  0.48488759  0.68314640  0.11978368    -0.33200
H681        H  0.50616937  0.66791126  0.13080630     0.28200
H682        H  0.59657681  0.86428751  0.11895725     0.28200
H683        H  0.60111325  0.78845976  0.17032704     0.18800
H684        H  0.50052099  0.74325610  0.07037968     0.18800
C685        C  0.55228046  0.75110958  0.33772543    -0.07100
C686        C  0.57354743  0.75625043  0.37253221    -0.18200
C687        C  0.57326503  0.77691170  0.40591008     0.10100
C688        C  0.55209521  0.79384061  0.40412088    -0.07000
C689        C  0.53191607  0.78956666  0.36869837    -0.18200
C690        C  0.53189880  0.76875038  0.33562247     0.10200
S691        S  0.59846318  0.77854052  0.45070510    -0.33200
S692        S  0.50607261  0.76667142  0.29116030    -0.33200
H693        H  0.52988994  0.76512031  0.26265856     0.28200
H694        H  0.57292095  0.77712795  0.97885665     0.28200
H695        H  0.58906834  0.74263638  0.37455268     0.18800
H696        H  0.51657110  0.80304438  0.36636771     0.18800
Fe697      Fe  0.53784779  0.60799569  0.75390312     1.65800
Fe698      Fe  0.49857630  0.66067539  0.74949462     1.73200
Fe699      Fe  0.59193862  0.70115075  0.74851244     1.54400
O700        O  0.61176392  0.68436882  0.79633937    -0.82600
O701        O  0.51801388  0.69822251  0.70260433    -0.80900
O702        O  0.57598901  0.62382452  0.79920666    -0.85100
O703        O  0.57612859  0.61926932  0.71011298    -0.80000
O704        O  0.57903761  0.72858199  0.79157037    -0.81800
O705        O  0.47314728  0.62039614  0.70567779    -0.84500
C706        C  0.60310301  0.64734711  0.69522891     0.96300
C707        C  0.60251537  0.65359934  0.81195645     1.03700
O708        O  0.54282802  0.65666362  0.75061263    -1.13500
O709        O  0.47278294  0.62337609  0.79607858    -0.75900
O710        O  0.49925595  0.58995021  0.79893693    -0.79400
O711        O  0.61172415  0.67954031  0.70558639    -0.80100
C712        C  0.47607650  0.59786653  0.81137553     0.95200
O713        O  0.49905742  0.58635427  0.70850216    -0.78000
O714        O  0.51861258  0.70149954  0.79304614    -0.83200
C715        C  0.54865944  0.71983656  0.68669913     0.97800
C716        C  0.54991871  0.72560368  0.80547052     1.03700
O717        O  0.57815840  0.72354538  0.70047397    -0.78900
C718        C  0.47652715  0.59402864  0.69315527     1.02000
Fe719      Fe  0.37186920  0.44355820  0.49947758     1.65800
Fe720      Fe  0.32070015  0.48449791  0.00097007     1.73200
Fe721      Fe  0.27884606  0.39080599  0.00174793     1.54400
O722        O  0.29720589  0.36962365  0.95655113    -0.82600
O723        O  0.28134795  0.46567477  0.54534203    -0.80900
O724        O  0.35719543  0.40734880  0.95224079    -0.85100
O725        O  0.35793984  0.40327664  0.54193212    -0.80000
O726        O  0.25421930  0.40431677  0.95605616    -0.81800
O727        O  0.35916136  0.50830602  0.54739844    -0.84500
C728        C  0.32916214  0.37876777  0.55862459     0.96300
C729        C  0.32783759  0.38003348  0.94005913     1.03700
O730        O  0.32373193  0.43964385  0.00068097    -1.13500
O731        O  0.35938127  0.51019916  0.95610096    -0.75900
O732        O  0.39346664  0.48457447  0.95663287    -0.79400
O733        O  0.29768429  0.37154506  0.54792927    -0.80100
C734        C  0.38603341  0.50784445  0.94319491     0.95200
O735        O  0.39150217  0.48046628  0.54668979    -0.78000
O736        O  0.28205420  0.46516147  0.95503936    -0.83200
C737        C  0.25784261  0.43489640  0.55936623     0.97800
C738        C  0.25829673  0.43388164  0.94169024     1.03700
O739        O  0.25445253  0.40513477  0.54671429    -0.78900
C740        C  0.38413288  0.50349373  0.56158534     1.02000
Fe741      Fe  0.06805027  0.44968746  0.74532768     1.65800
Fe742      Fe  0.15992064  0.48744369  0.75032740     1.73200
Fe743      Fe  0.10385168  0.39374578  0.75045604     1.54400
O744        O  0.06151638  0.37395392  0.79316302    -0.82600
O745        O  0.17751256  0.46800962  0.70382266    -0.80900
O746        O  0.03984007  0.41151532  0.78870246    -0.85100
O747        O  0.04441159  0.41182637  0.69934818    -0.80000
O748        O  0.14005301  0.40603840  0.79841080    -0.81800
O749        O  0.14980125  0.51652334  0.70697554    -0.84500
C750        C  0.04644224  0.38486822  0.68628599     0.96300
C751        C  0.03895092  0.38371273  0.80344355     1.03700
O752        O  0.11062573  0.44355835  0.74884434    -1.13500
O753        O  0.14670550  0.51139626  0.79696974    -0.75900
O754        O  0.08686677  0.48839338  0.79102025    -0.79400
O755        O  0.06719212  0.37493411  0.70199383    -0.80100
C756        C  0.11727528  0.50958061  0.80776713     0.95200
O757        O  0.08989079  0.48871494  0.70120752    -0.78000
O758        O  0.17867451  0.46573730  0.79345266    -0.83200
C759        C  0.17022371  0.43652980  0.69232617     0.97800
C760        C  0.16894407  0.43492931  0.80915047     1.03700
O761        O  0.14502124  0.40715516  0.70798986    -0.78900
C762        C  0.12139071  0.51358122  0.69123357     1.02000
Fe763      Fe  0.53693012  0.91698750  0.50067562     1.65800
Fe764      Fe  0.49869108  0.82484592  0.99747097     1.73200
Fe765      Fe  0.59164699  0.87996387  0.99969311     1.54400
O766        O  0.61008010  0.91771453  0.95273145    -0.82600
O767        O  0.51946270  0.80346799  0.53933129    -0.80900
O768        O  0.58021924  0.94738536  0.96239935    -0.85100
O769        O  0.56925904  0.93719314  0.55107838    -0.80000
O770        O  0.57868933  0.83961919  0.95577253    -0.81800
O771        O  0.47394451  0.83487915  0.54617775    -0.84500
C772        C  0.59797357  0.93813361  0.56258475     0.96300
C773        C  0.60445581  0.94357617  0.94472501     1.03700
O774        O  0.54248062  0.87387125  0.99918738    -1.13500
O775        O  0.47178959  0.83990305  0.95557579    -0.75900
O776        O  0.50335051  0.90045687  0.95050409    -0.79400
O777        O  0.61119486  0.92102106  0.54432542    -0.80100
C778        C  0.47763048  0.86947259  0.93908226     0.95200
O779        O  0.49316101  0.89381250  0.53961106    -0.78000
O780        O  0.51837752  0.80905987  0.94876835    -0.83200
C781        C  0.54981990  0.81362366  0.55662730     0.97800
C782        C  0.54972273  0.81549375  0.93833663     1.03700
O783        O  0.57864173  0.84257013  0.54623363    -0.78900
C784        C  0.47273141  0.86310403  0.55597219     1.02000
Fe785      Fe  0.91808101  0.37608161  0.49832492     1.65800
Fe786      Fe  0.82599185  0.32016651  0.00223961     1.73200
Fe787      Fe  0.88176011  0.28339508  0.99996933     1.54400
O788        O  0.92038631  0.30408292  0.95342981    -0.82600
O789        O  0.80831789  0.28095667  0.54675897    -0.80900
O790        O  0.94022850  0.36368770  0.94975893    -0.85100
O791        O  0.94727688  0.36475508  0.53890526    -0.80000
O792        O  0.84219393  0.25690899  0.95525241    -0.81800
O793        O  0.83988308  0.35869720  0.54777781    -0.84500
C794        C  0.94656749  0.33707834  0.55391068     0.96300
C795        C  0.93963657  0.33523756  0.93710620     1.03700
O796        O  0.87524092  0.32644203  0.00028762    -1.13500
O797        O  0.83592687  0.35783288  0.95720534    -0.75900
O798        O  0.89574373  0.39476839  0.95644779    -0.79400
O799        O  0.92238690  0.30466046  0.54440671    -0.80100
C800        C  0.86433219  0.38500831  0.94316386     0.95200
O801        O  0.90033382  0.39367408  0.54696951    -0.78000
O802        O  0.80664550  0.28123051  0.95701873    -0.83200
C803        C  0.81673106  0.25816775  0.55958705     0.97800
C804        C  0.81529634  0.25908328  0.94231049     1.03700
O805        O  0.84389782  0.25675701  0.54611854    -0.78900
C806        C  0.86949183  0.38458235  0.56193497     1.02000
Fe807      Fe  0.60900599  0.06549679  0.75587045     1.65800
Fe808      Fe  0.66390305  0.15780655  0.74794630     1.73200
Fe809      Fe  0.70159330  0.10296629  0.75127256     1.54400
O810        O  0.68312628  0.06580313  0.79885248    -0.82600
O811        O  0.70257670  0.17497533  0.70276043    -0.80900
O812        O  0.62305746  0.04125683  0.80060702    -0.85100
O813        O  0.61918713  0.03800679  0.71137892    -0.80000
O814        O  0.72859798  0.14392371  0.79445521    -0.81800
O815        O  0.62554864  0.14252296  0.70222174    -0.84500
C816        C  0.64681043  0.03870866  0.69611528     0.96300
C817        C  0.65210964  0.04371963  0.81349562     1.03700
O818        O  0.65826824  0.10875381  0.75166818    -1.13500
O819        O  0.62603221  0.14814657  0.79291524    -0.75900
O820        O  0.59362070  0.08800673  0.80178541    -0.79400
O821        O  0.67912294  0.06116587  0.70775294    -0.80100
C822        C  0.60203149  0.12019133  0.81156873     0.95200
O823        O  0.58769137  0.08304747  0.71065252    -0.78000
O824        O  0.70311122  0.17846579  0.79294459    -0.83200
C825        C  0.72491165  0.16608350  0.68966275     0.97800
C826        C  0.72624478  0.17098925  0.80700183     1.03700
O827        O  0.72702733  0.13963125  0.70413721    -0.78900
C828        C  0.59752225  0.11270300  0.69200868     1.02000
Fe829      Fe  0.91679420  0.53564253  0.75373857     1.65800
Fe830      Fe  0.82463546  0.49747725  0.74982242     1.73200
Fe831      Fe  0.88016953  0.59108156  0.74986632     1.54400
O832        O  0.91828546  0.61051109  0.79697989    -0.82600
O833        O  0.80681190  0.51811011  0.70414611    -0.80900
O834        O  0.93995917  0.57264762  0.80015567    -0.85100
O835        O  0.94503079  0.57485993  0.71081750    -0.80000
O836        O  0.84011161  0.57830125  0.79369708    -0.81800
O837        O  0.83844332  0.47242000  0.70465530    -0.84500
C838        C  0.94399254  0.60136288  0.69491277     0.96300
C839        C  0.93858803  0.60003206  0.81278829     1.03700
O840        O  0.87382969  0.54143056  0.75116661    -1.13500
O841        O  0.83504455  0.47011347  0.79527482    -0.75900
O842        O  0.89501724  0.49563929  0.79703491    -0.79400
O843        O  0.92092207  0.61023142  0.70565078    -0.80100
C844        C  0.86365864  0.47207716  0.80920769     0.95200
O845        O  0.89862040  0.49762924  0.70763151    -0.78000
O846        O  0.80567493  0.51753205  0.79493623    -0.83200
C847        C  0.81612270  0.54913239  0.68911483     0.97800
C848        C  0.81396615  0.54892337  0.80812499     1.03700
O849        O  0.84309704  0.57824487  0.70278134    -0.78900
C850        C  0.86799011  0.47534643  0.69218568     1.02000
Fe851      Fe  0.44979332  0.06860718  0.49537004     1.65800
Fe852      Fe  0.48715495  0.16024927  0.00296469     1.73200
Fe853      Fe  0.39445580  0.10468780  0.99905735     1.54400
O854        O  0.37448913  0.06379841  0.95477368    -0.82600
O855        O  0.46666660  0.17448528  0.55222261    -0.80900
O856        O  0.41759866  0.04978785  0.94442471    -0.85100
O857        O  0.40664152  0.03768416  0.53320473    -0.80000
O858        O  0.40758250  0.14215176  0.95273808    -0.81800
O859        O  0.51340057  0.14426406  0.54438410    -0.84500
C860        C  0.38306126  0.04130195  0.55276717     0.96300
C861        C  0.38794184  0.04781233  0.93487825     1.03700
O862        O  0.44379719  0.11124485  0.99919191    -1.13500
O863        O  0.51245975  0.15193605  0.95373411    -0.75900
O864        O  0.49397925  0.09290680  0.95693887    -0.79400
O865        O  0.37673933  0.06687034  0.54573799    -0.80100
C866        C  0.51377683  0.12429447  0.94176536     0.95200
O867        O  0.48281441  0.08360618  0.54609017    -0.78000
O868        O  0.46639195  0.18231481  0.96222985    -0.83200
C869        C  0.43514609  0.16816459  0.56147856     0.97800
C870        C  0.43630519  0.17203741  0.94431698     1.03700
O871        O  0.40670951  0.14470262  0.54283912    -0.78900
C872        C  0.50748903  0.11426264  0.55967643     1.02000
Fe873      Fe  0.60909236  0.53763357  0.50242258     1.65800
Fe874      Fe  0.66118639  0.49824939  0.99865665     1.73200
Fe875      Fe  0.70201316  0.59138175  0.99884270     1.54400
O876        O  0.67977100  0.61361670  0.95963031    -0.82600
O877        O  0.69779598  0.51632475  0.54571318    -0.80900
O878        O  0.62036404  0.57365258  0.95617734    -0.85100
O879        O  0.62539904  0.57847833  0.54536701    -0.80000
O880        O  0.72226460  0.57878535  0.94788345    -0.81800
O881        O  0.62087184  0.47056592  0.54207949    -0.84500
C882        C  0.65504577  0.60224929  0.56163777     0.96300
C883        C  0.64821478  0.60313088  0.94555829     1.03700
O884        O  0.65747299  0.54251289  0.99993748    -1.13500
O885        O  0.62467095  0.47550016  0.95125226    -0.75900
O886        O  0.58668247  0.49634849  0.95940148    -0.79400
O887        O  0.68601396  0.60878850  0.54954738    -0.80100
C888        C  0.59653721  0.47644580  0.94111527     0.95200
O889        O  0.59174189  0.50110243  0.54953881    -0.78000
O890        O  0.70228855  0.51952528  0.95543200    -0.83200
C891        C  0.72497462  0.54696807  0.55502937     0.97800
C892        C  0.72162771  0.54974538  0.93725225     1.03700
O893        O  0.73083684  0.57643771  0.53821658    -0.78900
C894        C  0.59748925  0.47584144  0.55976988     1.02000
Fe895      Fe  0.44467019  0.37369231  0.74900984     1.65800
Fe896      Fe  0.48322843  0.32046503  0.75069457     1.73200
Fe897      Fe  0.38995870  0.28054372  0.75117192     1.54400
O898        O  0.37121059  0.30065782  0.79705705    -0.82600
O899        O  0.46231404  0.27862309  0.70849960    -0.80900
O900        O  0.40509863  0.36103780  0.79170967    -0.85100
O901        O  0.40796899  0.36002175  0.70260580    -0.80000
O902        O  0.40371602  0.25552667  0.79640007    -0.81800
O903        O  0.50756755  0.35636538  0.70272567    -0.84500
C904        C  0.38025049  0.33096012  0.69038985     0.96300
C905        C  0.37939965  0.33263330  0.80784097     1.03700
O906        O  0.43919919  0.32478915  0.75021218    -1.13500
O907        O  0.51006741  0.36140694  0.79364648    -0.75900
O908        O  0.48145445  0.39283388  0.79619434    -0.79400
O909        O  0.36985683  0.29984036  0.70590105    -0.80100
C910        C  0.50512890  0.38586069  0.80925754     0.95200
O911        O  0.48484271  0.39317050  0.70529735    -0.78000
O912        O  0.46423556  0.28403262  0.79832374    -0.83200
C913        C  0.43130943  0.25598531  0.69405228     0.97800
C914        C  0.43318850  0.26008302  0.81135961     1.03700
O915        O  0.40229985  0.25468785  0.70558772    -0.78900
C916        C  0.50559433  0.38329190  0.68956601     1.02000
Fe917      Fe  0.06605586  0.60856524  0.50209868     1.65800
Fe918      Fe  0.15798772  0.66429934  0.99738244     1.73200
Fe919      Fe  0.10279167  0.70139166  0.99919458     1.54400
O920        O  0.06477307  0.68038756  0.95253282    -0.82600
O921        O  0.17768848  0.70461225  0.54132109    -0.80900
O922        O  0.03704499  0.62002998  0.96062299    -0.85100
O923        O  0.04419942  0.62152837  0.55039217    -0.80000
O924        O  0.14268852  0.72936486  0.95491978    -0.81800
O925        O  0.14840195  0.62795467  0.54379982    -0.84500
C926        C  0.04401596  0.64989153  0.56166258     0.96300
C927        C  0.04029198  0.64808310  0.94318855     1.03700
O928        O  0.10893736  0.65812826  0.99940261    -1.13500
O929        O  0.14391237  0.62422853  0.95358139    -0.75900
O930        O  0.08351280  0.58969418  0.95445143    -0.79400
O931        O  0.06228411  0.68044841  0.54382434    -0.80100
C932        C  0.11434423  0.59745520  0.94055175     0.95200
O933        O  0.08863964  0.59036931  0.54437919    -0.78000
O934        O  0.17480202  0.70166099  0.95105414    -0.83200
C935        C  0.16748970  0.72478637  0.55823240     0.97800
C936        C  0.16833029  0.72617683  0.93967610     1.03700
O937        O  0.14011154  0.72642851  0.54607243    -0.78900
C938        C  0.12015425  0.60058082  0.55784017     1.02000
Fe939      Fe  0.37692699  0.91986869  0.74559482     1.65800
Fe940      Fe  0.32112308  0.82748416  0.74950012     1.73200
Fe941      Fe  0.28433473  0.88317781  0.74792544     1.54400
O942        O  0.30552276  0.92340184  0.79258554    -0.82600
O943        O  0.28234884  0.80845705  0.70379619    -0.80900
O944        O  0.36549446  0.94857182  0.78731333    -0.85100
O945        O  0.36430469  0.94242891  0.69785709    -0.80000
O946        O  0.25776641  0.84537906  0.79397674    -0.81800
O947        O  0.35925906  0.83760069  0.70455979    -0.84500
C948        C  0.33573752  0.94127634  0.68529945     0.96300
C949        C  0.33767027  0.94695945  0.80311592     1.03700
O950        O  0.32739536  0.87682630  0.74773196    -1.13500
O951        O  0.35934384  0.84143919  0.79562567    -0.75900
O952        O  0.39507027  0.90189117  0.79345893    -0.79400
O953        O  0.30477926  0.92175644  0.70163556    -0.80100
C954        C  0.38568566  0.87117729  0.80931037     0.95200
O955        O  0.39548773  0.89776894  0.70281861    -0.78000
O956        O  0.28193425  0.80981142  0.79434844    -0.83200
C957        C  0.26013906  0.81714127  0.68941616     0.97800
C958        C  0.25957546  0.81856805  0.80793368     1.03700
O959        O  0.25781698  0.84375681  0.70334898    -0.78900
C960        C  0.38618790  0.86610311  0.69009085     1.02000
C961        C  0.19216880  0.75196092  0.90749599    -0.07100
C962        C  0.17758525  0.76520841  0.87841657    -0.18200
C963        C  0.19860484  0.78694846  0.84561354     0.10100
C964        C  0.23547647  0.79660142  0.84207999    -0.07000
C965        C  0.25024371  0.78439511  0.87194171    -0.18200
C966        C  0.22936769  0.76260525  0.90453782     0.10200
S967        S  0.17613854  0.79950687  0.80814967    -0.33200
S968        S  0.25157135  0.75060353  0.94329670    -0.33200
H969        H  0.28461218  0.76283006  0.92261759     0.28200
H970        H  0.19294678  0.79369828  0.77437795     0.28200
H971        H  0.14921185  0.75734832  0.88027196     0.18800
H972        H  0.27866167  0.79250232  0.86997584     0.18800
C973        C  0.23547803  0.79432007  0.65576348    -0.07100
C974        C  0.22768736  0.75810084  0.65231017    -0.18200
C975        C  0.20426329  0.73450545  0.62232216     0.10100
C976        C  0.18880835  0.74734451  0.59352535    -0.07000
C977        C  0.19554642  0.78309378  0.59742183    -0.18200
C978        C  0.21873837  0.80672887  0.62781622     0.10200
S979        S  0.19380999  0.68777041  0.62400757    -0.33200
S980        S  0.22665096  0.85254449  0.62763594    -0.33200
H981        H  0.26431219  0.86909587  0.63301777     0.28200
H982        H  0.15716225  0.67272098  0.61283863     0.28200
H983        H  0.23917798  0.74754923  0.67395338     0.18800
H984        H  0.18376062  0.79320692  0.57560602     0.18800
C985        C  0.52792333  0.40727945  0.84410076    -0.07100
C986        C  0.56570417  0.42292881  0.84133447    -0.18200
C987        C  0.58879941  0.44621163  0.87189445     0.10100
C988        C  0.57383297  0.45313116  0.90697454    -0.07000
C989        C  0.53593367  0.43696457  0.90989050    -0.18200
C990        C  0.51290350  0.41396489  0.87918950     0.10200
S991        S  0.63701723  0.46812079  0.86279305    -0.33200
S992        S  0.46458310  0.39289911  0.88739164    -0.33200
H993        H  0.45533720  0.35989302  0.86764766     0.28200
H994        H  0.64499432  0.50213848  0.87873520     0.28200
H995        H  0.57741950  0.41828459  0.81428395     0.18800
H996        H  0.52405032  0.44162902  0.93677436     0.18800
C997        C  0.57483234  0.45109660  0.59279275    -0.07100
C998        C  0.53764580  0.43935397  0.59268604    -0.18200
C999        C  0.51432052  0.41596876  0.62269309     0.10100
C1000       C  0.52835286  0.40436887  0.65452373    -0.07000
C1001       C  0.56540839  0.41536390  0.65422734    -0.18200
C1002       C  0.58885530  0.43896674  0.62410791     0.10200
S1003       S  0.46671695  0.40098391  0.61767150    -0.33200
S1004       S  0.63658525  0.45461399  0.62904232    -0.33200
H1005       H  0.64855581  0.49048911  0.61625955     0.28200
H1006       H  0.45440375  0.36603084  0.63362102     0.28200
H1007       H  0.52646138  0.44798965  0.56848416     0.18800
H1008       H  0.57650919  0.40694946  0.67872018     0.18800
C1009       C  0.36894335  0.02591396  0.89875266    -0.07100
C1010       C  0.33794822  0.99137008  0.90409017    -0.18200
C1011       C  0.32552300  0.96527610  0.87266552     0.10100
C1012       C  0.34421013  0.97426094  0.83498643    -0.07000
C1013       C  0.37314669  0.00999271  0.82884174    -0.18200
C1014       C  0.38551207  0.03584321  0.86013135     0.10200
S1015       S  0.28835489  0.92021157  0.88401131    -0.33200
S1016       S  0.42388721  0.08050985  0.84968131    -0.33200
H1017       H  0.41584768  0.09914085  0.87958371     0.28200
H1018       H  0.30478482  0.90183357  0.86675514     0.28200
H1019       H  0.32527245  0.98364914  0.93386478     0.18800
H1020       H  0.38717259  0.01747328  0.79978146     0.18800
C1021       C  0.33930779  0.96340534  0.64950358    -0.07100
C1022       C  0.34398764  0.99818612  0.65570961    -0.18200
C1023       C  0.35653361  0.02400089  0.62424547     0.10100
C1024       C  0.36335803  0.01435242  0.58529467    -0.07000
C1025       C  0.35573171  0.97850759  0.57859354    -0.18200
C1026       C  0.34441114  0.95318085  0.61017895     0.10200
S1027       S  0.36694047  0.06955160  0.63702633    -0.33200
S1028       S  0.33923592  0.90927341  0.59804068    -0.33200
H1029       H  0.32851926  0.89255635  0.63631300     0.28200
H1030       H  0.40147259  0.08688386  0.61864295     0.28200
H1031       H  0.34062607  0.00623350  0.68605573     0.18800
H1032       H  0.36054851  0.97067274  0.54878631     0.18800
C1033       C  0.43167451  0.18898018  0.59568801    -0.07100
C1034       C  0.45064786  0.19243573  0.63181002    -0.18200
C1035       C  0.44972622  0.21267681  0.66492094     0.10100
C1036       C  0.42932668  0.23032815  0.66217634    -0.07000
C1037       C  0.40881700  0.22544083  0.62680360    -0.18200
C1038       C  0.41038934  0.20571345  0.59327029     0.10200
S1039       S  0.47469692  0.21404619  0.70991446    -0.33200
S1040       S  0.38684212  0.20524402  0.54747190    -0.33200
H1041       H  0.41366651  0.20788655  0.52044274     0.28200
H1042       H  0.45204259  0.21775887  0.73807680     0.28200
H1043       H  0.46603154  0.17881199  0.63457425     0.18800
H1044       H  0.39295364  0.23865256  0.62442656     0.18800
C1045       C  0.43196284  0.23695845  0.84572462    -0.07100
C1046       C  0.45622008  0.25392336  0.87827639    -0.18200
C1047       C  0.45755338  0.23381862  0.91138802     0.10100
C1048       C  0.43471328  0.19538158  0.91160894    -0.07000
C1049       C  0.40984822  0.17856227  0.87943190    -0.18200
C1050       C  0.40826803  0.19872213  0.84662609     0.10200
S1051       S  0.48718560  0.25803589  0.95386786    -0.33200
S1052       S  0.37631521  0.17351524  0.80646001    -0.33200
H1053       H  0.39778907  0.19551493  0.77424428     0.28200
H1054       H  0.49951392  0.29359796  0.93971615     0.28200
H1055       H  0.47394973  0.28327016  0.87789175     0.18800
H1056       H  0.39209351  0.14919130  0.87916765     0.18800
C1057       C  0.96223836  0.61994607  0.84746547    -0.07100
C1058       C  0.99913917  0.64432386  0.83951749    -0.18200
C1059       C  0.02525694  0.65522046  0.87047551     0.10100
C1060       C  0.01415286  0.64199771  0.91047625    -0.07000
C1061       C  0.97701398  0.61916562  0.91872237    -0.18200
C1062       C  0.95102206  0.60813938  0.88775966     0.10200
S1063       S  0.07237586  0.68269699  0.85607950    -0.33200
S1064       S  0.90439270  0.57642120  0.90089892    -0.33200
H1065       H  0.88887958  0.58633991  0.86939826     0.28200
H1066       H  0.08501582  0.66477266  0.88122318     0.28200
H1067       H  0.00798855  0.65256403  0.80838144     0.18800
H1068       H  0.96830238  0.60882496  0.94932916     0.18800
C1069       C  0.97161370  0.62208862  0.66298651    -0.07100
C1070       C  0.00613956  0.62609662  0.66795461    -0.18200
C1071       C  0.03149326  0.63854119  0.63630782     0.10100
C1072       C  0.02224895  0.64657718  0.59808029    -0.07000
C1073       C  0.98884963  0.64507966  0.59361250    -0.18200
C1074       C  0.96367528  0.63346639  0.62585478     0.10200
S1075       S  0.07470882  0.64206019  0.64603939    -0.33200
S1076       S  0.92063470  0.63008011  0.61635289    -0.33200
H1077       H  0.92371472  0.65193084  0.65016066     0.28200
H1078       H  0.09446992  0.66922157  0.61690595     0.28200
H1079       H  0.01307702  0.61831917  0.69647985     0.18800
H1080       H  0.98155237  0.65113421  0.56426298     0.18800
C1081       C  0.79456372  0.55055296  0.65384518    -0.07100
C1082       C  0.77350544  0.51840792  0.63121573    -0.18200
C1083       C  0.75260708  0.51706984  0.59775895     0.10100
C1084       C  0.75026209  0.54813089  0.58730596    -0.07000
C1085       C  0.77128747  0.58043303  0.60978811    -0.18200
C1086       C  0.79356313  0.58214466  0.64229272     0.10200
S1087       S  0.73105540  0.47502593  0.56897124    -0.33200
S1088       S  0.81799894  0.62484020  0.66923797    -0.33200
H1089       H  0.85205255  0.63034006  0.65731942     0.28200
H1090       H  0.74032531  0.49244358  0.53078203     0.28200
H1091       H  0.77368505  0.49388024  0.63916087     0.18800
H1092       H  0.76995726  0.60452854  0.60249412     0.18800
C1093       C  0.79199711  0.55092715  0.84193105    -0.07100
C1094       C  0.77445749  0.57099569  0.83697144    -0.18200
C1095       C  0.75078022  0.57072029  0.86694431     0.10100
C1096       C  0.74532546  0.55086949  0.90344104    -0.07000
C1097       C  0.76354069  0.53147668  0.90851813    -0.18200
C1098       C  0.78672428  0.53134298  0.87835702     0.10200
S1099       S  0.72685927  0.59435093  0.85553425    -0.33200
S1100       S  0.81062108  0.50723342  0.88736327    -0.33200
H1101       H  0.79815555  0.49581410  0.92733705     0.28200
H1102       H  0.69438933  0.56923421  0.87513113     0.28200
H1103       H  0.77804457  0.58573488  0.80883693     0.18800
H1104       H  0.75985738  0.51665088  0.93657610     0.18800
C1105       C  0.53964876  0.12807987  0.90949815    -0.07100
C1106       C  0.56038337  0.11141681  0.91580253    -0.18200
C1107       C  0.58250277  0.11034098  0.88506053     0.10100
C1108       C  0.58313546  0.12513946  0.84642391    -0.07000
C1109       C  0.56344620  0.14292638  0.84037430    -0.18200
C1110       C  0.54195387  0.14479452  0.87156601     0.10200
S1111       S  0.60943277  0.08990991  0.89709962    -0.33200
S1112       S  0.51535996  0.16553308  0.85994965    -0.33200
H1113       H  0.53046083  0.19123172  0.89175579     0.28200
H1114       H  0.63833930  0.11170771  0.87062290     0.28200
H1115       H  0.55923016  0.09898562  0.94498341     0.18800
H1116       H  0.56382881  0.15432366  0.81075175     0.18800
C1117       C  0.53052890  0.11455133  0.59412237    -0.07100
C1118       C  0.53530892  0.08437818  0.59882661    -0.18200
C1119       C  0.55754458  0.08332389  0.62955161     0.10100
C1120       C  0.57517360  0.11279291  0.65735220    -0.11800
C1121       C  0.57065534  0.14300533  0.65260122    -0.18200
C1122       C  0.54835809  0.14402854  0.62198743     0.10200
S1123       S  0.56378715  0.04446972  0.63003837    -0.33200
S1124       S  0.54192337  0.18262616  0.62231447    -0.33200
H1125       H  0.50447716  0.16081464  0.61525721     0.28200
H1126       H  0.60109540  0.06489131  0.63925088     0.28200
H1127       H  0.52240278  0.06168958  0.57763780     0.18800
H1128       H  0.58359562  0.16558557  0.67394022     0.18800
C1129       C  0.79329660  0.23581312  0.90776910    -0.07100
C1130       C  0.78288530  0.25186546  0.87742129    -0.18200
C1131       C  0.76261318  0.23199485  0.84348554     0.10100
C1132       C  0.75100745  0.19444134  0.84003727    -0.07000
C1133       C  0.76186308  0.17847896  0.87016058    -0.18200
C1134       C  0.78251087  0.19856125  0.90399243     0.10200
S1135       S  0.75422388  0.25689321  0.80485687    -0.33200
S1136       S  0.79223902  0.17446004  0.94230894    -0.33200
H1137       H  0.78801065  0.19279580  0.97571077     0.28200
H1138       H  0.75969136  0.23896441  0.77187110     0.28200
H1139       H  0.79151200  0.28057590  0.87958230     0.18800
H1140       H  0.75301562  0.14971796  0.86821213     0.18800
C1141       C  0.74918673  0.18775559  0.65592788    -0.07100
C1142       C  0.73350670  0.19379200  0.62159912    -0.18200
C1143       C  0.75481134  0.21505366  0.58909172     0.10100
C1144       C  0.79311659  0.23191134  0.59111354    -0.07000
C1145       C  0.80884676  0.22511799  0.62501171    -0.18200
C1146       C  0.78736303  0.20360802  0.65759469     0.10200
S1147       S  0.73117527  0.21856302  0.54537269    -0.33200
S1148       S  0.81042100  0.19952074  0.70146875    -0.33200
H1149       H  0.78666397  0.20041503  0.73055676     0.28200
H1150       H  0.75570502  0.21912228  0.51635066     0.28200
H1151       H  0.70423830  0.18138918  0.61985988     0.18800
H1152       H  0.83813833  0.23802159  0.62701340     0.18800
C1153       C  0.86155459  0.40548229  0.90855379    -0.07100
C1154       C  0.88592298  0.41365186  0.87618261    -0.18200
C1155       C  0.88582788  0.43360601  0.84246660     0.10100
C1156       C  0.86106032  0.44636572  0.84120188    -0.07000
C1157       C  0.83513541  0.43620114  0.87237507    -0.18200
C1158       C  0.83554271  0.41655369  0.90638789     0.10200
S1159       S  0.91606441  0.44062313  0.80029581    -0.33200
S1160       S  0.80384376  0.40860124  0.94693662    -0.33200
H1161       H  0.82783364  0.41320664  0.97881129     0.28200
H1162       H  0.93528533  0.42573552  0.81879149     0.28200
H1163       H  0.90490109  0.40392539  0.87722024     0.18800
H1164       H  0.81543676  0.44489933  0.87112985     0.18800
C1165       C  0.86792031  0.40563901  0.59679954    -0.07100
C1166       C  0.84402407  0.41902267  0.59461920    -0.18200
C1167       C  0.84386139  0.44228653  0.62472408     0.10100
C1168       C  0.86717855  0.45148367  0.65879085    -0.07000
C1169       C  0.89065964  0.43748172  0.66125192    -0.18200
C1170       C  0.89112437  0.41455133  0.63089235     0.10200
S1171       S  0.81531676  0.46136050  0.61608909    -0.33200
S1172       S  0.92104579  0.39668763  0.63811154    -0.33200
H1173       H  0.89840761  0.36298567  0.61878953     0.28200
H1174       H  0.84057205  0.49634294  0.63091261     0.28200
H1175       H  0.82656263  0.41272430  0.56821166     0.18800
H1176       H  0.90839966  0.44395537  0.68742235     0.18800
C1177       C  0.62570085  0.97006638  0.91257765    -0.07100
C1178       C  0.62267953  0.95727751  0.87248257    -0.18200
C1179       C  0.63405574  0.98138700  0.83946605     0.10100
C1180       C  0.64885612  0.01907376  0.84665218    -0.07000
C1181       C  0.65464776  0.03216477  0.88682250    -0.18200
C1182       C  0.64336230  0.00807118  0.91984935     0.10200
S1183       S  0.62648862  0.96223746  0.78876315    -0.33200
S1184       S  0.65066897  0.02721547  0.97052249    -0.33200
H1185       H  0.65170149  0.99836662  0.98997287     0.28200
H1186       H  0.65460138  0.99348945  0.76987739     0.28200
H1187       H  0.60915284  0.92818397  0.86666740     0.18800
H1188       H  0.66621436  0.06109588  0.89246082     0.18800
C1189       C  0.61548485  0.95968609  0.59957589    -0.07100
C1190       C  0.64815790  0.99317171  0.59598200    -0.18200
C1191       C  0.66012682  0.01936097  0.62740098     0.10100
C1192       C  0.63965925  0.01135190  0.66380247    -0.07000
C1193       C  0.60854834  0.97666808  0.66822925    -0.18200
C1194       C  0.59610950  0.95103973  0.63667147     0.10200
S1195       S  0.69917848  0.06356630  0.61733209    -0.33200
S1196       S  0.55385561  0.90877427  0.64497249    -0.33200
H1197       H  0.55731432  0.88841331  0.61336412     0.28200
H1198       H  0.68359733  0.08331714  0.63303445     0.28200
H1199       H  0.66273131  0.00022488  0.56729310     0.18800
H1200       H  0.59278662  0.96993620  0.69610127     0.18800
C1201       C  0.45310451  0.86845113  0.90604738    -0.07100
C1202       C  0.44675555  0.89772548  0.90324775    -0.18200
C1203       C  0.42367082  0.89855469  0.87351448     0.10100
C1204       C  0.40698636  0.86993870  0.84450949    -0.07000
C1205       C  0.41249569  0.84020929  0.84789102    -0.18200
C1206       C  0.43537742  0.83925919  0.87786324     0.10200
S1207       S  0.41539152  0.93609408  0.87570321    -0.33200
S1208       S  0.44280996  0.80132519  0.87632458    -0.33200
H1209       H  0.48009542  0.82358079  0.88390996     0.28200
H1210       H  0.37841198  0.91499629  0.86515171     0.28200
H1211       H  0.45921328  0.91989664  0.92514080     0.18800
H1212       H  0.40011466  0.81815728  0.82584614     0.18800
C1213       C  0.44729692  0.86094976  0.58823119    -0.07100
C1214       C  0.43978466  0.83746489  0.62158169    -0.18200
C1215       C  0.41988661  0.83827585  0.65531234     0.10100
C1216       C  0.40702958  0.86302029  0.65581932    -0.07000
C1217       C  0.41384895  0.88577173  0.62214401    -0.18200
C1218       C  0.43268067  0.88427076  0.58809693     0.10200
S1219       S  0.41380447  0.80875571  0.69760351    -0.33200
S1220       S  0.43544747  0.91163598  0.54480027    -0.33200
H1221       H  0.43183907  0.88577379  0.51543648     0.28200
H1222       H  0.41654075  0.83333794  0.72813424     0.28200
H1223       H  0.45078484  0.81947256  0.62221109     0.18800
H1224       H  0.40356032  0.90435671  0.62191486     0.18800
C1225       C  0.11788117  0.53268823  0.84163099    -0.07100
C1226       C  0.09259326  0.51602003  0.87315427    -0.18200
C1227       C  0.09182610  0.53616579  0.90646200     0.10100
C1228       C  0.11591195  0.57435753  0.90772352    -0.07000
C1229       C  0.14158098  0.59096892  0.87636328    -0.18200
C1230       C  0.14265693  0.57064444  0.84326460     0.10200
S1231       S  0.06093073  0.51106033  0.94732752    -0.33200
S1232       S  0.17492664  0.59501808  0.80322218    -0.33200
H1233       H  0.15239585  0.57355173  0.77102115     0.28200
H1234       H  0.08530991  0.53216206  0.47879034     0.28200
H1235       H  0.07391880  0.48679188  0.87238631     0.18800
H1236       H  0.16016742  0.62020184  0.87693939     0.18800
C1237       C  0.12435269  0.53983486  0.65994462    -0.07100
C1238       C  0.15115428  0.55129993  0.62958553    -0.18200
C1239       C  0.15088133  0.57139000  0.59586527     0.10100
C1240       C  0.12328448  0.58030554  0.59250134    -0.07000
C1241       C  0.09751944  0.56996904  0.62370245    -0.18200
C1242       C  0.09841971  0.55102739  0.65775599     0.10200
S1243       S  0.18475165  0.58243579  0.55701366    -0.33200
S1244       S  0.06644926  0.54322175  0.69803519    -0.33200
H1245       H  0.08996767  0.54660166  0.72994920     0.28200
H1246       H  0.16117470  0.57597724  0.52403587     0.28200
H1247       H  0.17127491  0.54301750  0.63104799     0.18800
H1248       H  0.07672419  0.57728711  0.62190606     0.18800
C1249       C  0.01018818  0.36291693  0.83408852    -0.07100
C1250       C  0.01864999  0.35087574  0.87003213    -0.18200
C1251       C  0.99471210  0.33903401  0.90359144     0.10100
C1252       C  0.96192690  0.33932992  0.90099120    -0.07000
C1253       C  0.95246112  0.34893871  0.86429276    -0.18200
C1254       C  0.97565872  0.35988987  0.83069746     0.10200
S1255       S  0.00737849  0.32663551  0.95070039    -0.33200
S1256       S  0.95966625  0.37045204  0.78471833    -0.33200
H1257       H  0.97911746  0.36088556  0.75783710     0.28200
H1258       H  0.04046231  0.33092813  0.93675660     0.28200
H1259       H  0.04492290  0.35305810  0.87275862     0.18800
H1260       H  0.92708088  0.34881425  0.86213881     0.18800
C1261       C  0.97512980  0.34395335  0.58419558    -0.07100
C1262       C  0.96587667  0.32297761  0.61989484    -0.18200
C1263       C  0.99032441  0.33347441  0.65269073     0.10100
C1264       C  0.02447169  0.36590334  0.65000332    -0.07000
C1265       C  0.03483183  0.38497650  0.61311934    -0.18200
C1266       C  0.01087434  0.37408120  0.57997317     0.10200
S1267       S  0.97522389  0.30618561  0.69821644    -0.33200
S1268       S  0.02619011  0.39930307  0.53271612    -0.33200
H1269       H  0.06220492  0.42360941  0.54486517     0.28200
H1270       H  0.00981610  0.31376052  0.71060911     0.28200
H1271       H  0.93880784  0.29950674  0.62319308     0.18800
H1272       H  0.06121897  0.40958425  0.61107068     0.18800
C1273       C  0.33031282  0.36103604  0.90393363    -0.07100
C1274       C  0.33503810  0.33101024  0.90920741    -0.18200
C1275       C  0.34936065  0.31958277  0.87777159     0.10100
C1276       C  0.35857162  0.33831125  0.84011565    -0.07000
C1277       C  0.35105215  0.36650667  0.83421746    -0.18200
C1278       C  0.33703700  0.37796413  0.86554992     0.10200
S1279       S  0.35870764  0.28375681  0.88916998    -0.33200
S1280       S  0.33121067  0.41643589  0.85585798    -0.33200
H1281       H  0.30369866  0.40726240  0.88493018     0.28200
H1282       H  0.39314138  0.30085970  0.87065712     0.28200
H1283       H  0.33049626  0.31843242  0.93897072     0.18800
H1284       H  0.35752811  0.38077725  0.80533405     0.18800
C1285       C  0.35952691  0.33466289  0.65690934    -0.07100
C1286       C  0.34213487  0.35450718  0.66501683    -0.18200
C1287       C  0.32913814  0.36679287  0.63327793     0.10100
C1288       C  0.33354585  0.35895065  0.59265453    -0.07000
C1289       C  0.34893067  0.33730156  0.58462912    -0.18200
C1290       C  0.36204196  0.32506793  0.61621207     0.10200
S1291       S  0.31066374  0.39575869  0.64449456    -0.33200
S1292       S  0.38389111  0.29990992  0.60150623    -0.33200
H1293       H  0.40174491  0.30217912  0.63815530     0.28200
H1294       H  0.31049472  0.39262248  0.68719623     0.28200
H1295       H  0.34078397  0.36226412  0.69618253     0.18800
H1296       H  0.35268540  0.33169904  0.55329040     0.18800
C1297       C  0.23478832  0.43219576  0.90750644    -0.07100
C1298       C  0.25122991  0.45545834  0.87418129    -0.18200
C1299       C  0.23066533  0.45578175  0.84100315     0.10100
C1300       C  0.19232965  0.43303423  0.84153046    -0.07000
C1301       C  0.17605048  0.40873558  0.87416637    -0.18200
C1302       C  0.19669958  0.40823155  0.90713113     0.10200
S1303       S  0.25408267  0.48390958  0.79734360    -0.33200
S1304       S  0.17245687  0.37769574  0.94857729    -0.33200
H1305       H  0.19442671  0.40139558  0.97972227     0.28200
H1306       H  0.28973401  0.49724229  0.81145595     0.28200
H1307       H  0.28047757  0.47311587  0.87399244     0.18800
H1308       H  0.14680735  0.39094066  0.87480367     0.18800
C1309       C  0.23356217  0.43386643  0.59202846    -0.07100
C1310       C  0.22806319  0.41208753  0.62641186    -0.18200
C1311       C  0.20809023  0.41278209  0.65994824     0.10100
C1312       C  0.19191615  0.43458071  0.65850303    -0.07000
C1313       C  0.19700080  0.45594215  0.62391025    -0.18200
C1314       C  0.21732620  0.45567371  0.59067729     0.10200
S1315       S  0.20653349  0.38746751  0.70462643    -0.33200
S1316       S  0.22046521  0.48296869  0.54716117    -0.33200
H1317       H  0.22090205  0.45912023  0.51772277     0.28200
H1318       H  0.20771584  0.41294247  0.73298636     0.28200
H1319       H  0.24075566  0.39565018  0.62791522     0.18800
H1320       H  0.18454012  0.47263606  0.62252046     0.18800
C1321       C  0.64265459  0.62547356  0.91535800    -0.07100
C1322       C  0.66344130  0.63599883  0.87950454    -0.18200
C1323       C  0.65296653  0.64855778  0.84561332     0.10100
C1324       C  0.62152863  0.65148253  0.84813865    -0.07000
C1325       C  0.60280881  0.64414768  0.88512655    -0.18200
C1326       C  0.61286870  0.63119855  0.91865105     0.10200
S1327       S  0.67850992  0.65643006  0.79913125    -0.33200
S1328       S  0.58485717  0.62035882  0.96365355    -0.33200
H1329       H  0.61081343  0.62252460  0.99137751     0.28200
H1330       H  0.66691075  0.67800959  0.77960108     0.28200
H1331       H  0.68626673  0.63175933  0.87676501     0.18800
H1332       H  0.57859843  0.64624818  0.88708598     0.18800
C1333       C  0.65225922  0.62118204  0.59766128    -0.07100
C1334       C  0.64613405  0.60328720  0.63504126    -0.18200
C1335       C  0.63260737  0.61322811  0.66844340     0.10100
C1336       C  0.62459155  0.64145567  0.66410912    -0.07000
C1337       C  0.63383584  0.66150285  0.62777466    -0.18200
C1338       C  0.64772705  0.65170616  0.59449825     0.10200
S1339       S  0.62479948  0.58900270  0.71604794    -0.33200
S1340       S  0.65703219  0.67779253  0.54829728    -0.33200
H1341       H  0.68096334  0.66786199  0.53124263     0.28200
H1342       H  0.63951492  0.56737650  0.70421190     0.28200
H1343       H  0.64984371  0.57999462  0.63721695     0.18800
H1344       H  0.62829282  0.68353806  0.62447999     0.18800
C1345       C  0.45326049  0.57130117  0.65914744    -0.07100
C1346       C  0.41591234  0.55904079  0.66011178    -0.18200
C1347       C  0.39241022  0.53599449  0.62956640     0.10100
C1348       C  0.40667756  0.52610734  0.59621479    -0.07000
C1349       C  0.44399065  0.53820218  0.59555034    -0.18200
C1350       C  0.46733620  0.56067880  0.62630847     0.10200
S1351       S  0.34441890  0.51821577  0.63640997    -0.33200
S1352       S  0.51501433  0.57603588  0.62081932    -0.33200
H1353       H  0.52742296  0.61140210  0.63602490     0.28200
H1354       H  0.33353069  0.48335814  0.62056143     0.28200
H1355       H  0.40474688  0.56636833  0.68565573     0.18800
H1356       H  0.45532482  0.53083739  0.57019955     0.18800
C1357       C  0.40940492  0.53309761  0.91104097    -0.07100
C1358       C  0.39306504  0.53787127  0.87633217    -0.18200
C1359       C  0.41404147  0.55875907  0.84326541     0.10100
C1360       C  0.45230919  0.57622222  0.84533696    -0.07000
C1361       C  0.46860937  0.57191251  0.88031154    -0.18200
C1362       C  0.44771301  0.55100091  0.91325332     0.10200
S1363       S  0.39033549  0.55992858  0.79836057    -0.33200
S1364       S  0.47164974  0.54922857  0.95767517    -0.33200
H1365       H  0.44641855  0.54798095  0.98619323     0.28200
H1366       H  0.41506214  0.55969537  0.77017724     0.28200
H1367       H  0.36370056  0.52387087  0.87418264     0.18800
H1368       H  0.49796726  0.58538806  0.88219432     0.18800
C1369       C  0.55002560  0.74239152  0.65134647    -0.07100
C1370       C  0.57930996  0.77831339  0.64813318    -0.18200
C1371       C  0.58014614  0.80225286  0.61823599     0.10100
C1372       C  0.55118809  0.79010618  0.58971614    -0.07000
C1373       C  0.52247161  0.75367087  0.59235902    -0.18200
C1374       C  0.52178821  0.72979885  0.62214044     0.10200
S1375       S  0.61830978  0.84820318  0.61993352    -0.33200
S1376       S  0.48482667  0.68313631  0.61986982    -0.33200
H1377       H  0.50609604  0.66787705  0.63085189     0.28200
H1378       H  0.59661181  0.86425332  0.61896430     0.28200
H1379       H  0.60115274  0.78841672  0.67025889     0.18800
H1380       H  0.50045309  0.74323376  0.57045520     0.18800
C1381       C  0.55234731  0.75117848  0.83770656    -0.07100
C1382       C  0.57359565  0.75630324  0.87252584    -0.18200
C1383       C  0.57332000  0.77697546  0.90589631     0.10100
C1384       C  0.55217674  0.79393220  0.90408834    -0.07000
C1385       C  0.53202574  0.78968467  0.86864892    -0.18200
C1386       C  0.53200126  0.76885638  0.83557953     0.10200
S1387       S  0.59848955  0.77858112  0.95070816    -0.33200
S1388       S  0.50620805  0.76680369  0.79109751    -0.33200
H1389       H  0.53000717  0.76519603  0.76261490     0.28200
H1390       H  0.57289526  0.77706691  0.47886883     0.28200
H1391       H  0.58909320  0.74266539  0.87456336     0.18800
H1392       H  0.51670298  0.80318805  0.86630388     0.18800
loop_ 
_geom_bond_atom_site_label_1 
_geom_bond_atom_site_label_2 
_geom_bond_distance 
_geom_bond_site_symmetry_2 
_ccdc_geom_bond_type 
Fe1          O17   2.064       .  S
Fe1           O7   2.042       .  S
Fe1          O14   2.051       .  S
Fe1           O6   2.050       .  S
Fe1          O12   1.975       .  S
Fe2           O5   2.068       .  S
Fe2           O9   2.068       .  S
Fe2          O13   2.075       .  S
Fe2          O18   2.065       .  S
Fe2          O12   1.984       .  S
Fe3          O21   2.079       .  S
Fe3           O8   2.074       .  S
Fe3          O15   2.079       .  S
Fe3           O4   2.077       .  S
Fe3          O12   1.990       .  S
O4           C11   1.270       .  A
O5           C19   1.270       .  A
O6           C11   1.266       .  A
O7           C10   1.264       .  A
O8           C20   1.270       .  A
O9           C22   1.269       .  A
C10          O15   1.270       .  A
C10         C640   1.476       .  S
C11         C628   1.468       .  S
O13          C16   1.269       .  A
O14          C16   1.265       .  A
C16         C664   1.475       .  S
O17          C22   1.269       .  A
O18          C20   1.270       .  A
C19          O21   1.272       .  A
C19         C673   1.490       .  S
C20         C685   1.480       .  S
C22         C649   1.478       .  S
Fe23         O39   2.052   1_556  S
Fe23         O29   2.051   1_556  S
Fe23        O732   2.057       .  S
Fe23        O724   2.043       .  S
Fe23        O730   1.977   1_556  S
Fe24         O35   2.065       .  S
Fe24         O40   2.071       .  S
Fe24        O723   2.056       .  S
Fe24        O727   2.084       .  S
Fe24         O34   1.979       .  S
Fe25         O30   2.076       .  S
Fe25         O26   2.081       .  S
Fe25        O739   2.067       .  S
Fe25        O733   2.074       .  S
Fe25         O34   1.988       .  S
O26          C33   1.270       .  A
O27        Fe720   2.056       .  S
O27          C41   1.266       .  A
O28        Fe719   2.043       .  S
O28          C33   1.265       .  A
O29          C32   1.265       .  A
O30          C42   1.272       .  A
O31        Fe720   2.084       .  S
O31          C44   1.274       .  A
C32          O37   1.268       .  A
C32         C592   1.469       .  S
C33         C577   1.465       .  S
O34        Fe719   1.977       .  S
O35          C38   1.266       .  A
O36        Fe719   2.058       .  S
O36          C38   1.265       .  A
O37        Fe721   2.074       .  S
C38         C661   1.477       .  S
O39          C44   1.268       .  A
O40          C42   1.272       .  A
C41          O43   1.268       .  A
C41         C613   1.476       .  S
C42         C601   1.484       .  S
O43        Fe721   2.067       .  S
C44         C652   1.482       .  S
Fe45         O61   2.040       .  S
Fe45         O51   2.055       .  S
Fe45         O58   2.060       .  S
Fe45         O50   2.035       .  S
Fe45         O56   1.969       .  S
Fe46         O49   2.048       .  S
Fe46         O53   2.074       .  S
Fe46         O57   2.066       .  S
Fe46         O62   2.065       .  S
Fe46         O56   1.983       .  S
Fe47         O65   2.083       .  S
Fe47         O52   2.078       .  S
Fe47         O59   2.084       .  S
Fe47         O48   2.097       .  S
Fe47         O56   1.990       .  S
O48          C55   1.274       .  A
O49          C63   1.268       .  A
O50          C55   1.263       .  A
O51          C54   1.267       .  A
O52          C64   1.271       .  A
O53          C66   1.266       .  A
C54          O59   1.271       .  A
C54         C568   1.475       .  S
C55         C553   1.484       .  S
O57          C60   1.271       .  A
O58          C60   1.269       .  A
C60         C529   1.472       .  S
O61          C66   1.262       .  A
O62          C64   1.268       .  A
C63          O65   1.274       .  A
C63         C616   1.474       .  S
C64         C604   1.490       .  S
C66         C541   1.477       .  S
Fe67         O83   2.057       .  S
Fe67         O73   2.042       .  S
Fe67        O776   2.059   1_554  S
Fe67        O768   2.060   1_554  S
Fe67        O774   1.968   1_554  S
Fe68         O79   2.093       .  S
Fe68         O84   2.067       .  S
Fe68        O767   2.082       .  S
Fe68        O771   2.073       .  S
Fe68         O78   1.973       .  S
Fe69         O74   2.085       .  S
Fe69         O70   2.075       .  S
Fe69        O783   2.070       .  S
Fe69        O777   2.098       .  S
Fe69         O78   1.983       .  S
O70          C77   1.269       .  A
O71        Fe764   2.082   1_554  S
O71          C85   1.274       .  A
O72        Fe763   2.060       .  S
O72          C77   1.267       .  A
O73          C76   1.266       .  A
O74          C86   1.273       .  A
O75        Fe764   2.073   1_554  S
O75          C88   1.269       .  A
C76          O81   1.274       .  A
C76         C493   1.473       .  S
C77         C481   1.474       .  S
O78        Fe763   1.968       .  S
O79          C82   1.275       .  A
O80        Fe763   2.059       .  S
O80          C82   1.270       .  A
O81        Fe765   2.098   1_554  S
C82         C505   1.494       .  S
O83          C88   1.266       .  A
O84          C86   1.270       .  A
C85          O87   1.269       .  A
C85         C676   1.500       .  S
C86         C688   1.485       .  S
O87        Fe765   2.070   1_554  S
C88         C517   1.485       .  S
Fe89        O105   2.060   1_556  S
Fe89         O95   2.045   1_556  S
Fe89        O798   2.052       .  S
Fe89        O790   2.051       .  S
Fe89        O796   1.973   1_556  S
Fe90        O101   2.063       .  S
Fe90        O106   2.054       .  S
Fe90        O789   2.055       .  S
Fe90        O793   2.066       .  S
Fe90        O100   1.984       .  S
Fe91         O96   2.083       .  S
Fe91         O92   2.087       .  S
Fe91        O805   2.082       .  S
Fe91        O799   2.087       .  S
Fe91        O100   1.989       .  S
O92          C99   1.272       .  A
O93        Fe786   2.055       .  S
O93         C107   1.267       .  A
O94        Fe785   2.051       .  S
O94          C99   1.267       .  A
O95          C98   1.265       .  A
O96         C108   1.273       .  A
O97        Fe786   2.066       .  S
O97         C110   1.270       .  A
C98         O103   1.272       .  A
C98         C565   1.484       .  S
C99         C556   1.473       .  S
O100       Fe785   1.973       .  S
O101        C104   1.265       .  A
O102       Fe785   2.052       .  S
O102        C104   1.264       .  A
O103       Fe787   2.087   1_554  S
C104        C457   1.475       .  S
O105        C110   1.269       .  A
O106        C108   1.268       .  A
C107        O109   1.271       .  A
C107        C448   1.482       .  S
C108        C433   1.482       .  S
O109       Fe787   2.082   1_554  S
C110        C469   1.472       .  S
Fe111       O127   2.072       .  S
Fe111       O117   2.047       .  S
Fe111       O124   2.061       .  S
Fe111       O116   2.055       .  S
Fe111       O122   1.976       .  S
Fe112       O115   2.058       .  S
Fe112       O119   2.068       .  S
Fe112       O123   2.071       .  S
Fe112       O128   2.064       .  S
Fe112       O122   1.981       .  S
Fe113       O131   2.073       .  S
Fe113       O118   2.078       .  S
Fe113       O125   2.091       .  S
Fe113       O114   2.076       .  S
Fe113       O122   1.989       .  S
O114        C121   1.268       .  A
O115        C129   1.267       .  A
O116        C121   1.265       .  A
O117        C120   1.268       .  A
O118        C130   1.273       .  A
O119        C132   1.269       .  A
C120        O125   1.274       .  A
C120        C496   1.484       .  S
C121        C484   1.471       .  S
O123        C126   1.267       .  A
O124        C126   1.267       .  A
C126        C412   1.474       .  S
O127        C132   1.269       .  A
O128        C130   1.270       .  A
C129        O131   1.269       .  A
C129        C445   1.478       .  S
C130        C436   1.487       .  S
C132        C424   1.487       .  S
Fe133       O149   2.053       .  S
Fe133       O139   2.047       .  S
Fe133       O146   2.046       .  S
Fe133       O138   2.044       .  S
Fe133       O144   1.975       .  S
Fe134       O137   2.071       .  S
Fe134       O141   2.075       .  S
Fe134       O145   2.078       .  S
Fe134       O150   2.065       .  S
Fe134       O144   1.981       .  S
Fe135       O153   2.077       .  S
Fe135       O140   2.085       .  S
Fe135       O147   2.088       .  S
Fe135       O136   2.086       .  S
Fe135       O144   1.990       .  S
O136        C143   1.272       .  A
O137        C151   1.271       .  A
O138        C143   1.265       .  A
O139        C142   1.266       .  A
O140        C152   1.273       .  A
O141        C154   1.272       .  A
C142        O147   1.271       .  A
C142        C373   1.488       .  S
C143        C361   1.469       .  S
O145        C148   1.269       .  A
O146        C148   1.264       .  A
C148        C460   1.482       .  S
O149        C154   1.267       .  A
O150        C152   1.270       .  A
C151        O153   1.269       .  A
C151        C385   1.500       .  S
C152        C397   1.482       .  S
C154        C472   1.479       .  S
Fe155       O171   2.061   1_556  S
Fe155       O161   2.053   1_556  S
Fe155       O864   2.060       .  S
Fe155       O856   2.049       .  S
Fe155       O862   1.965       .  S
Fe156       O167   2.070       .  S
Fe156       O172   2.077       .  S
Fe156       O855   2.064       .  S
Fe156       O859   2.090       .  S
Fe156       O166   1.967       .  S
Fe157       O162   2.067       .  S
Fe157       O158   2.084       .  S
Fe157       O871   2.076       .  S
Fe157       O865   2.072       .  S
Fe157       O166   1.982       .  S
O158        C165   1.270       .  A
O159       Fe852   2.064       .  S
O159        C173   1.269       .  A
O160       Fe851   2.049       .  S
O160        C165   1.267       .  A
O161        C164   1.267       .  A
O162        C174   1.271       .  A
O163       Fe852   2.089       .  S
O163        C176   1.274       .  A
C164        O169   1.269       .  A
C164        C328   1.479       .  S
C165        C313   1.469       .  S
O166       Fe851   1.965       .  S
O167        C170   1.267       .  A
O168       Fe851   2.060       .  S
O168        C170   1.266       .  A
O169       Fe853   2.071   1_554  S
C170        C409   1.479       .  S
O171        C176   1.270       .  A
O172        C174   1.272       .  A
C173        O175   1.270       .  A
C173        C337   1.480       .  S
C174        C352   1.489       .  S
O175       Fe853   2.075   1_554  S
C176        C421   1.496       .  S
Fe177       O193   2.049       .  S
Fe177       O183   2.060       .  S
Fe177       O886   2.070   1_554  S
Fe177       O878   2.037   1_554  S
Fe177       O884   1.970   1_554  S
Fe178       O189   2.062       .  S
Fe178       O194   2.074       .  S
Fe178       O877   2.050       .  S
Fe178       O881   2.079       .  S
Fe178       O188   1.970       .  S
Fe179       O184   2.071       .  S
Fe179       O180   2.093       .  S
Fe179       O893   2.099       .  S
Fe179       O887   2.070       .  S
Fe179       O188   1.982       .  S
O180        C187   1.273       .  A
O181       Fe874   2.050   1_554  S
O181        C195   1.266       .  A
O182       Fe873   2.037       .  S
O182        C187   1.264       .  A
O183        C186   1.268       .  A
O184        C196   1.270       .  A
O185       Fe874   2.079   1_554  S
O185        C198   1.270       .  A
C186        O191   1.270       .  A
C186        C637   1.466       .  S
C187        C625   1.476       .  S
O188       Fe873   1.970       .  S
O189        C192   1.269       .  A
O190       Fe873   2.070       .  S
O190        C192   1.270       .  A
O191       Fe875   2.070   1_554  S
C192        C292   1.482       .  S
O193        C198   1.265       .  A
O194        C196   1.272       .  A
C195        O197   1.275       .  A
C195        C388   1.496       .  S
C196        C400   1.485       .  S
O197       Fe875   2.099   1_554  S
C198        C301   1.480       .  S
Fe199       O215   2.061       .  S
Fe199       O205   2.049       .  S
Fe199       O212   2.057       .  S
Fe199       O204   2.046       .  S
Fe199       O210   1.974       .  S
Fe200       O203   2.062       .  S
Fe200       O207   2.071       .  S
Fe200       O211   2.071       .  S
Fe200       O216   2.059       .  S
Fe200       O210   1.982       .  S
Fe201       O219   2.076       .  S
Fe201       O206   2.080       .  S
Fe201       O213   2.084       .  S
Fe201       O202   2.079       .  S
Fe201       O210   1.987       .  S
O202        C209   1.270       .  A
O203        C217   1.269       .  A
O204        C209   1.266       .  A
O205        C208   1.266       .  A
O206        C218   1.272       .  A
O207        C220   1.269       .  A
C208        O213   1.271       .  A
C208        C589   1.472       .  S
C209        C580   1.479       .  S
O211        C214   1.269       .  A
O212        C214   1.267       .  A
C214        C289   1.476       .  S
O215        C220   1.267       .  A
O216        C218   1.269       .  A
C217        O219   1.271       .  A
C217        C340   1.481       .  S
C218        C349   1.482       .  S
C220        C304   1.480       .  S
Fe221       O237   2.056       .  S
Fe221       O227   2.049       .  S
Fe221       O930   2.061   1_554  S
Fe221       O922   2.060   1_554  S
Fe221       O928   1.973   1_554  S
Fe222       O233   2.067       .  S
Fe222       O238   2.051       .  S
Fe222       O921   2.060       .  S
Fe222       O925   2.061       .  S
Fe222       O232   1.977       .  S
Fe223       O228   2.092       .  S
Fe223       O224   2.074       .  S
Fe223       O937   2.075       .  S
Fe223       O931   2.092       .  S
Fe223       O232   1.988       .  S
O224        C231   1.271       .  A
O225       Fe918   2.060   1_554  S
O225        C239   1.269       .  A
O226       Fe917   2.060       .  S
O226        C231   1.268       .  A
O227        C230   1.265       .  A
O228        C240   1.272       .  A
O229       Fe918   2.061   1_554  S
O229        C242   1.265       .  A
C230        O235   1.271       .  A
C230        C376   1.475       .  S
C231        C364   1.474       .  S
O232       Fe917   1.973       .  S
O233        C236   1.270       .  A
O234       Fe917   2.061       .  S
O234        C236   1.269       .  A
O235       Fe919   2.092   1_554  S
C236        C532   1.479       .  S
O237        C242   1.266       .  A
O238        C240   1.266       .  A
C239        O241   1.272       .  A
C239        C280   1.482       .  S
C240        C265   1.492       .  S
O241       Fe919   2.075   1_554  S
C242        C544   1.477       .  S
Fe243       O259   2.056       .  S
Fe243       O249   2.051       .  S
Fe243       O256   2.066       .  S
Fe243       O248   2.048       .  S
Fe243       O254   1.975       .  S
Fe244       O247   2.069       .  S
Fe244       O251   2.074       .  S
Fe244       O255   2.079       .  S
Fe244       O260   2.063       .  S
Fe244       O254   1.979       .  S
Fe245       O263   2.071       .  S
Fe245       O250   2.077       .  S
Fe245       O257   2.079       .  S
Fe245       O246   2.075       .  S
Fe245       O254   1.992       .  S
O246        C253   1.269       .  A
O247        C261   1.273       .  A
O248        C253   1.266       .  A
O249        C252   1.266       .  A
O250        C262   1.270       .  A
O251        C264   1.267       .  A
C252        O257   1.270       .  A
C252        C325   1.466       .  S
C253        C316   1.477       .  S
O255        C258   1.273       .  A
O256        C258   1.270       .  A
C258        C508   1.489       .  S
O259        C264   1.265       .  A
O260        C262   1.269       .  A
C261        O263   1.270       .  A
C261        C277   1.492       .  S
C262        C268   1.488       .  S
C264        C520   1.480       .  S
C265        C266   1.407       .  A
C265        C270   1.418       .  A
C266        C267   1.407       .  A
C266        H275   1.084       .  S
C267        C268   1.417       .  A
C267        S271   1.802       .  S
C268        C269   1.402       .  A
C269        C270   1.401       .  A
C269        H276   1.083       .  S
C270        S272   1.811       .  S
S271        H274   1.407       .  S
S272        H273   1.407       .  S
C277        C278   1.406       .  A
C277        C282   1.422       .  A
C278        C279   1.397       .  A
C278        H287   1.084       .  S
C279        C280   1.414       .  A
C279        S283   1.805       .  S
C280        C281   1.403       .  A
C281        C282   1.403       .  A
C281        H288   1.084       .  S
C282        S284   1.802       .  S
S283        H286   1.407       .  S
S284        H285   1.402       .  S
C289        C290   1.403       .  A
C289        C294   1.414       .  A
C290        C291   1.401       .  A
C290        H299   1.084       .  S
C291        C292   1.416       .  A
C291        S295   1.804       .  S
C292        C293   1.405       .  A
C293        C294   1.399       .  A
C293        H300   1.084       .  S
C294        S296   1.806       .  S
S295        H298   1.407       .  S
S296        H297   1.407       .  S
C301        C302   1.404       .  A
C301        C306   1.415       .  A
C302        C303   1.396       .  A
C302        H311   1.084       .  S
C303        C304   1.414       .  A
C303        S307   1.805       .  S
C304        C305   1.405       .  A
C305        C306   1.404       .  A
C305        H312   1.084       .  S
C306        S308   1.803       .  S
S307        H310   1.406       .  S
S308        H309   1.407       .  S
C313        C314   1.403   1_545  A
C313        C318   1.408       .  A
C314        C315   1.404       .  A
C314        H323   1.084       .  S
C315        C316   1.415       .  A
C315        S319   1.802       .  S
C316        C317   1.405   1_565  A
C317        C318   1.395       .  A
C317        H324   1.084       .  S
C318        S320   1.805       .  S
S319        H322   1.407       .  S
S320        H321   1.407       .  S
C325        C326   1.404       .  A
C325        C330   1.411       .  A
C326        C327   1.403   1_565  A
C326        H335   1.084   1_565  S
C327        C328   1.415       .  A
C327        S331   1.803       .  S
C328        C329   1.405   1_545  A
C329        C330   1.395       .  A
C329        H336   1.084       .  S
C330        S332   1.810       .  S
S331        H334   1.407       .  S
S332        H333   1.402       .  S
C337        C338   1.401       .  A
C337        C342   1.414       .  A
C338        C339   1.397       .  A
C338        H347   1.079       .  S
C339        C340   1.415       .  A
C339        S343   1.806       .  S
C340        C341   1.404       .  A
C341        C342   1.402       .  A
C341        H348   1.080       .  S
C342        S344   1.804       .  S
S343        H346   1.403       .  S
S344        H345   1.407       .  S
C349        C350   1.404       .  A
C349        C354   1.415       .  A
C350        C351   1.404       .  A
C350        H359   1.083       .  S
C351        C352   1.417       .  A
C351        S355   1.809       .  S
C352        C353   1.407       .  A
C353        C354   1.402       .  A
C353        H360   1.084       .  S
C354        S356   1.804       .  S
S355        H358   1.407       .  S
S356        H357   1.403       .  S
C361        C362   1.404       .  A
C361        C366   1.410       .  A
C362        C363   1.402   1_655  A
C362        H371   1.084   1_655  S
C363        C364   1.413       .  A
C363        S367   1.804       .  S
C364        C365   1.404   1_455  A
C365        C366   1.398       .  A
C365        H372   1.084       .  S
C366        S368   1.802       .  S
S367        H370   1.407       .  S
S368        H369   1.405       .  S
C373        C374   1.407   1_655  A
C373        C378   1.416       .  A
C374        C375   1.396       .  A
C374        H383   1.084       .  S
C375        C376   1.410       .  A
C375        S379   1.805       .  S
C376        C377   1.404   1_455  A
C377        C378   1.407       .  A
C377        H384   1.084       .  S
C378        S380   1.799       .  S
S379        H382   1.406       .  S
S380        H381   1.407       .  S
C385        C386   1.405       .  A
C385        C390   1.420       .  A
C386        C387   1.398       .  A
C386        H395   1.081       .  S
C387        C388   1.419       .  A
C387        S391   1.805       .  S
C388        C389   1.407       .  A
C389        C390   1.407       .  A
C389        H396   1.083       .  S
C390        S392   1.799       .  S
S391        H394   1.408       .  S
S392        H393   1.407       .  S
C397        C398   1.404       .  A
C397        C402   1.410       .  A
C398        C399   1.406       .  A
C398        H407   1.084       .  S
C399        C400   1.417       .  A
C399        S403   1.802       .  S
C400        C401   1.404       .  A
C401        C402   1.401       .  A
C401        H408   1.083       .  S
C402        S404   1.804       .  S
S403        H406   1.406       .  S
S404        H405   1.407       .  S
C409        C410   1.404       .  A
C409        C414   1.414       .  A
C410        C411   1.398       .  A
C410        H419   1.084       .  S
C411        C412   1.411       .  A
C411        S415   1.805       .  S
C412        C413   1.404       .  A
C413        C414   1.403       .  A
C413        H420   1.084       .  S
C414        S416   1.800       .  S
S415        H418   1.407       .  S
S416        H417   1.406       .  S
C421        C422   1.408       .  A
C421        C426   1.418       .  A
C422        C423   1.403       .  A
C422        H431   1.084       .  S
C423        C424   1.416       .  A
C423        S427   1.804       .  S
C424        C425   1.403       .  A
C425        C426   1.401       .  A
C425        H432   1.084       .  S
C426        S428   1.798       .  S
S427        H430   1.407       .  S
S428        H429   1.402       .  S
C433        C434   1.404       .  A
C433        C438   1.414       .  A
C434        C435   1.398       .  A
C434        H443   1.084       .  S
C435        C436   1.417       .  A
C435        S439   1.804       .  S
C436        C437   1.407       .  A
C437        C438   1.403       .  A
C437        H444   1.084       .  S
C438        S440   1.803       .  S
S439        H442   1.408       .  S
S440        H441   1.406       .  S
C445        C446   1.401       .  A
C445        C450   1.415       .  A
C446        C447   1.397       .  A
C446        H455   1.084       .  S
C447        C448   1.416       .  A
C447        S451   1.805       .  S
C448        C449   1.405       .  A
C449        C450   1.405       .  A
C449        H456   1.084       .  S
C450        S452   1.803       .  S
S451        H454   1.406       .  S
S452        H453   1.407       .  S
C457        C458   1.402       .  A
C457        C462   1.413       .  A
C458        C459   1.398       .  A
C458        H467   1.083       .  S
C459        C460   1.415       .  A
C459        S463   1.811       .  S
C460        C461   1.405       .  A
C461        C462   1.402       .  A
C461        H468   1.079       .  S
C462        S464   1.803       .  S
S463        H466   1.406       .  S
S464        H465   1.407       .  S
C469        C470   1.402       .  A
C469        C474   1.412       .  A
C470        C471   1.398       .  A
C470        H479   1.084       .  S
C471        C472   1.413       .  A
C471        S475   1.799       .  S
C472        C473   1.406       .  A
C473        C474   1.399       .  A
C473        H480   1.084       .  S
C474        S476   1.806       .  S
S475        H478   1.408       .  S
S476        H477   1.407       .  S
C481        C482   1.402       .  A
C481        C486   1.414   1_565  A
C482        C483   1.401       .  A
C482        H491   1.084       .  S
C483        C484   1.413   1_565  A
C483        S487   1.805       .  S
C484        C485   1.401       .  A
C485        C486   1.401       .  A
C485        H492   1.084       .  S
C486        S488   1.804       .  S
S487        H490   1.406       .  S
S488        H489   1.407   1_545  S
C493        C494   1.405       .  A
C493        C498   1.412       .  A
C494        C495   1.407   1_565  A
C494        H503   1.083   1_565  S
C495        C496   1.416       .  A
C495        S499   1.802       .  S
C496        C497   1.405   1_545  A
C497        C498   1.395       .  A
C497        H504   1.084       .  S
C498        S500   1.809       .  S
S499        H502   1.407       .  S
S500        H501   1.404       .  S
C505        C506   1.407       .  A
C505        C510   1.417       .  A
C506        C507   1.401       .  A
C506        H515   1.084       .  S
C507        C508   1.417       .  A
C507        S511   1.805       .  S
C508        C509   1.405       .  A
C509        C510   1.403       .  A
C509        H516   1.084       .  S
C510        S512   1.798       .  S
S511        H514   1.408       .  S
S512        H513   1.401       .  S
C517        C518   1.407       .  A
C517        C522   1.416       .  A
C518        C519   1.405       .  A
C518        H527   1.084       .  S
C519        C520   1.414       .  A
C519        S523   1.803       .  S
C520        C521   1.401       .  A
C521        C522   1.396       .  A
C521        H528   1.083       .  S
C522        S524   1.805       .  S
S523        H526   1.407       .  S
S524        H525   1.408       .  S
C529        C530   1.401       .  A
C529        C534   1.413       .  A
C530        C531   1.397       .  A
C530        H539   1.085       .  S
C531        C532   1.415       .  A
C531        S535   1.804       .  S
C532        C533   1.406       .  A
C533        C534   1.401       .  A
C533        H540   1.084       .  S
C534        S536   1.804       .  S
S535       H1234   1.408       .  S
S536        H537   1.407       .  S
H538       S1231   1.408       .  S
C541        C542   1.405       .  A
C541        C546   1.414       .  A
C542        C543   1.404       .  A
C542        H551   1.084       .  S
C543        C544   1.416       .  A
C543        S547   1.802       .  S
C544        C545   1.401       .  A
C545        C546   1.392       .  A
C545        H552   1.083       .  S
C546        S548   1.806       .  S
S547        H550   1.407       .  S
S548        H549   1.408       .  S
C553        C554   1.406       .  A
C553        C558   1.419   1_455  A
C554        C555   1.410   1_455  A
C554        H563   1.083       .  S
C555        C556   1.411       .  A
C555        S559   1.805   1_655  S
C556        C557   1.397       .  A
C557        C558   1.395       .  A
C557        H564   1.085       .  S
C558        S560   1.807       .  S
S559        H562   1.407       .  S
S560        H561   1.405       .  S
C565        C566   1.404       .  A
C565        C570   1.417   1_655  A
C566        C567   1.405       .  A
C566        H575   1.084       .  S
C567        C568   1.413   1_655  A
C567        S571   1.801       .  S
C568        C569   1.400       .  A
C569        C570   1.401       .  A
C569        H576   1.083       .  S
C570        S572   1.811       .  S
S571        H574   1.404   1_655  S
S572        H573   1.407       .  S
C577        C578   1.403       .  A
C577        C582   1.408       .  A
C578        C579   1.404       .  A
C578        H587   1.084       .  S
C579        C580   1.415       .  A
C579        S583   1.803       .  S
C580        C581   1.406       .  A
C581        C582   1.394       .  A
C581        H588   1.084       .  S
C582        S584   1.807       .  S
S583        H586   1.406       .  S
S584        H585   1.406       .  S
C589        C590   1.404       .  A
C589        C594   1.411       .  A
C590        C591   1.404       .  A
C590        H599   1.083       .  S
C591        C592   1.409       .  A
C591        S595   1.807       .  S
C592        C593   1.401       .  A
C593        C594   1.398       .  A
C593        H600   1.084       .  S
C594        S596   1.798       .  S
S595        H598   1.407       .  S
S596        H597   1.403       .  S
C601        C602   1.403       .  A
C601        C606   1.415       .  A
C602        C603   1.404       .  A
C602        H611   1.083       .  S
C603        C604   1.418       .  A
C603        S607   1.810       .  S
C604        C605   1.405       .  A
C605        C606   1.404       .  A
C605        H612   1.084       .  S
C606        S608   1.803       .  S
S607        H610   1.407       .  S
S608        H609   1.405       .  S
C613        C614   1.404       .  A
C613        C618   1.414       .  A
C614        C615   1.401       .  A
C614        H623   1.083       .  S
C615        C616   1.412       .  A
C615        S619   1.803       .  S
C616        C617   1.403       .  A
C617        C618   1.396       .  A
C617        H624   1.084       .  S
C618        S620   1.805       .  S
S619        H622   1.407       .  S
S620        H621   1.405       .  S
C625        C626   1.403       .  A
C625        C630   1.417       .  A
C626        C627   1.404       .  A
C626        H635   1.082       .  S
C627        C628   1.413       .  A
C627        S631   1.804       .  S
C628        C629   1.398       .  A
C629        C630   1.394       .  A
C629        H636   1.085       .  S
C630        S632   1.807       .  S
S631        H634   1.403       .  S
S632        H633   1.402       .  S
C637        C638   1.398       .  A
C637        C642   1.412       .  A
C638        C639   1.399       .  A
C638        H647   1.083       .  S
C639        C640   1.415       .  A
C639        S643   1.809       .  S
C640        C641   1.403       .  A
C641        C642   1.401       .  A
C641        H648   1.084       .  S
C642        S644   1.803       .  S
S643        H646   1.407       .  S
S644        H645   1.405       .  S
C649        C650   1.405       .  A
C649        C654   1.413       .  A
C650        C651   1.403       .  A
C650        H659   1.084       .  S
C651        C652   1.414       .  A
C651        S655   1.804       .  S
C652        C653   1.405       .  A
C653        C654   1.398       .  A
C653        H660   1.084       .  S
C654        S656   1.805       .  S
S655        H658   1.408       .  S
S656        H657   1.407       .  S
C661        C662   1.405       .  A
C661        C666   1.414       .  A
C662        C663   1.402       .  A
C662        H671   1.084       .  S
C663        C664   1.413       .  A
C663        S667   1.804       .  S
C664        C665   1.403       .  A
C665        C666   1.398       .  A
C665        H672   1.084       .  S
C666        S668   1.805       .  S
S667        H670   1.407       .  S
S668        H669   1.407       .  S
C673        C674   1.404       .  A
C673        C678   1.415       .  A
C674        C675   1.404       .  A
C674        H683   1.084       .  S
C675        C676   1.422       .  A
C675        S679   1.802       .  S
C676        C677   1.409       .  A
C677        C678   1.402       .  A
C677        H684   1.083       .  S
C678        S680   1.805       .  S
S679        H682   1.404       .  S
S680        H681   1.408       .  S
C685        C686   1.406       .  A
C685        C690   1.412       .  A
C686        C687   1.405       .  A
C686        H695   1.082       .  S
C687        C688   1.416       .  A
C687        S691   1.803       .  S
C688        C689   1.403       .  A
C689        C690   1.398       .  A
C689        H696   1.072       .  S
C690        S692   1.805       .  S
S691       H1390   1.407       .  S
S692        H693   1.407       .  S
H694       S1387   1.407       .  S
Fe697       O713   2.064       .  S
Fe697       O703   2.042       .  S
Fe697       O710   2.051       .  S
Fe697       O702   2.050       .  S
Fe697       O708   1.975       .  S
Fe698       O701   2.068       .  S
Fe698       O705   2.068       .  S
Fe698       O709   2.075       .  S
Fe698       O714   2.065       .  S
Fe698       O708   1.984       .  S
Fe699       O717   2.079       .  S
Fe699       O704   2.074       .  S
Fe699       O711   2.079       .  S
Fe699       O700   2.078       .  S
Fe699       O708   1.989       .  S
O700        C707   1.270       .  A
O701        C715   1.269       .  A
O702        C707   1.266       .  A
O703        C706   1.264       .  A
O704        C716   1.270       .  A
O705        C718   1.269       .  A
C706        O711   1.270       .  A
C706       C1336   1.476       .  S
C707       C1324   1.468       .  S
O709        C712   1.269       .  A
O710        C712   1.265       .  A
C712       C1360   1.475       .  S
O713        C718   1.269       .  A
O714        C716   1.270       .  A
C715        O717   1.272       .  A
C715       C1369   1.490       .  S
C716       C1381   1.480       .  S
C718       C1345   1.478       .  S
Fe719       O735   2.053       .  S
Fe719       O725   2.052       .  S
Fe720       O731   2.065   1_554  S
Fe720       O736   2.071   1_554  S
Fe720       O730   1.978       .  S
Fe721       O726   2.076   1_554  S
Fe721       O722   2.081   1_554  S
Fe721       O730   1.988       .  S
O722        C729   1.270       .  A
O723        C737   1.266       .  A
O724        C729   1.265       .  A
O725        C728   1.265       .  A
O726        C738   1.272       .  A
O727        C740   1.274       .  A
C728        O733   1.268       .  A
C728       C1288   1.470       .  S
C729       C1273   1.466       .  S
O731        C734   1.266       .  A
O732        C734   1.265       .  A
C734       C1357   1.476       .  S
O735        C740   1.268       .  A
O736        C738   1.272       .  A
C737        O739   1.268       .  A
C737       C1309   1.476       .  S
C738       C1297   1.484       .  S
C740       C1348   1.482       .  S
Fe741       O757   2.041       .  S
Fe741       O747   2.055       .  S
Fe741       O754   2.060       .  S
Fe741       O746   2.035       .  S
Fe741       O752   1.969       .  S
Fe742       O745   2.048       .  S
Fe742       O749   2.074       .  S
Fe742       O753   2.066       .  S
Fe742       O758   2.065       .  S
Fe742       O752   1.983       .  S
Fe743       O761   2.084       .  S
Fe743       O748   2.078       .  S
Fe743       O755   2.084       .  S
Fe743       O744   2.097       .  S
Fe743       O752   1.990       .  S
O744        C751   1.274       .  A
O745        C759   1.268       .  A
O746        C751   1.263       .  A
O747        C750   1.267       .  A
O748        C760   1.271       .  A
O749        C762   1.266       .  A
C750        O755   1.271       .  A
C750       C1264   1.475       .  S
C751       C1249   1.484       .  S
O753        C756   1.271       .  A
O754        C756   1.269       .  A
C756       C1225   1.472       .  S
O757        C762   1.262       .  A
O758        C760   1.268       .  A
C759        O761   1.274       .  A
C759       C1312   1.474       .  S
C760       C1300   1.490       .  S
C762       C1237   1.477       .  S
Fe763       O779   2.057       .  S
Fe763       O769   2.042       .  S
Fe764       O775   2.093       .  S
Fe764       O780   2.067       .  S
Fe764       O774   1.973       .  S
Fe765       O770   2.085       .  S
Fe765       O766   2.075       .  S
Fe765       O774   1.983       .  S
O766        C773   1.269       .  A
O767        C781   1.274       .  A
O768        C773   1.267       .  A
O769        C772   1.266       .  A
O770        C782   1.273       .  A
O771        C784   1.269       .  A
C772        O777   1.274       .  A
C772       C1189   1.473       .  S
C773       C1177   1.474       .  S
O775        C778   1.275       .  A
O776        C778   1.270       .  A
C778       C1201   1.494       .  S
O779        C784   1.266       .  A
O780        C782   1.270       .  A
C781        O783   1.269       .  A
C781       C1372   1.500       .  S
C782       C1384   1.485       .  S
C784       C1213   1.485       .  S
Fe785       O801   2.061       .  S
Fe785       O791   2.045       .  S
Fe786       O797   2.063   1_554  S
Fe786       O802   2.055   1_554  S
Fe786       O796   1.984       .  S
Fe787       O792   2.083       .  S
Fe787       O788   2.087       .  S
Fe787       O796   1.989   1_556  S
O788        C795   1.272       .  A
O789        C803   1.267       .  A
O790        C795   1.267       .  A
O791        C794   1.265       .  A
O792        C804   1.273       .  A
O793        C806   1.270       .  A
C794        O799   1.272       .  A
C794       C1261   1.483       .  S
C795       C1252   1.473       .  S
O797        C800   1.265       .  A
O798        C800   1.264       .  A
C800       C1153   1.475       .  S
O801        C806   1.269       .  A
O802        C804   1.268       .  A
C803        O805   1.271       .  A
C803       C1144   1.482       .  S
C804       C1129   1.482       .  S
C806       C1165   1.472       .  S
Fe807       O823   2.072       .  S
Fe807       O813   2.047       .  S
Fe807       O820   2.060       .  S
Fe807       O812   2.055       .  S
Fe807       O818   1.976       .  S
Fe808       O811   2.058       .  S
Fe808       O815   2.068       .  S
Fe808       O819   2.070       .  S
Fe808       O824   2.064       .  S
Fe808       O818   1.981       .  S
Fe809       O827   2.073       .  S
Fe809       O814   2.078       .  S
Fe809       O821   2.091       .  S
Fe809       O810   2.075       .  S
Fe809       O818   1.989       .  S
O810        C817   1.268       .  A
O811        C825   1.267       .  A
O812        C817   1.265       .  A
O813        C816   1.268       .  A
O814        C826   1.273       .  A
O815        C828   1.269       .  A
C816        O821   1.274       .  A
C816       C1192   1.484       .  S
C817       C1180   1.471       .  S
O819        C822   1.267       .  A
O820        C822   1.267       .  A
C822       C1108   1.474       .  S
O823        C828   1.269       .  A
O824        C826   1.270       .  A
C825        O827   1.269       .  A
C825       C1141   1.478       .  S
C826       C1132   1.487       .  S
C828       C1120   1.487       .  S
Fe829       O845   2.053       .  S
Fe829       O835   2.047       .  S
Fe829       O842   2.046       .  S
Fe829       O834   2.044       .  S
Fe829       O840   1.975       .  S
Fe830       O833   2.071       .  S
Fe830       O837   2.075       .  S
Fe830       O841   2.078       .  S
Fe830       O846   2.065       .  S
Fe830       O840   1.981       .  S
Fe831       O849   2.077       .  S
Fe831       O836   2.085       .  S
Fe831       O843   2.088       .  S
Fe831       O832   2.086       .  S
Fe831       O840   1.990       .  S
O832        C839   1.272       .  A
O833        C847   1.271       .  A
O834        C839   1.265       .  A
O835        C838   1.266       .  A
O836        C848   1.273       .  A
O837        C850   1.272       .  A
C838        O843   1.271       .  A
C838       C1069   1.488       .  S
C839       C1057   1.469       .  S
O841        C844   1.269       .  A
O842        C844   1.264       .  A
C844       C1156   1.482       .  S
O845        C850   1.267       .  A
O846        C848   1.270       .  A
C847        O849   1.269       .  A
C847       C1081   1.500       .  S
C848       C1093   1.482       .  S
C850       C1168   1.479       .  S
Fe851       O867   2.061       .  S
Fe851       O857   2.053       .  S
Fe852       O863   2.069   1_554  S
Fe852       O868   2.077   1_554  S
Fe852       O862   1.967   1_554  S
Fe853       O858   2.067       .  S
Fe853       O854   2.083       .  S
Fe853       O862   1.982       .  S
O854        C861   1.270       .  A
O855        C869   1.269       .  A
O856        C861   1.267       .  A
O857        C860   1.268       .  A
O858        C870   1.271       .  A
O859        C872   1.274       .  A
C860        O865   1.270       .  A
C860       C1024   1.479       .  S
C861       C1009   1.468       .  S
O863        C866   1.267       .  A
O864        C866   1.266       .  A
C866       C1105   1.478       .  S
O867        C872   1.270       .  A
O868        C870   1.272       .  A
C869        O871   1.270       .  A
C869       C1033   1.480       .  S
C870       C1048   1.490       .  S
C872       C1117   1.496       .  S
Fe873       O889   2.049       .  S
Fe873       O879   2.060       .  S
Fe874       O885   2.061       .  S
Fe874       O890   2.074       .  S
Fe874       O884   1.970       .  S
Fe875       O880   2.071       .  S
Fe875       O876   2.093       .  S
Fe875       O884   1.982       .  S
O876        C883   1.273       .  A
O877        C891   1.266       .  A
O878        C883   1.264       .  A
O879        C882   1.268       .  A
O880        C892   1.270       .  A
O881        C894   1.270       .  A
C882        O887   1.270       .  A
C882       C1333   1.466       .  S
C883       C1321   1.476       .  S
O885        C888   1.268       .  A
O886        C888   1.270       .  A
C888        C988   1.482       .  S
O889        C894   1.265       .  A
O890        C892   1.272       .  A
C891        O893   1.275       .  A
C891       C1084   1.497       .  S
C892       C1096   1.485       .  S
C894        C997   1.480       .  S
Fe895       O911   2.061       .  S
Fe895       O901   2.046       .  S
Fe895       O908   2.056       .  S
Fe895       O900   2.046       .  S
Fe895       O906   1.974       .  S
Fe896       O899   2.062       .  S
Fe896       O903   2.071       .  S
Fe896       O907   2.071       .  S
Fe896       O912   2.059       .  S
Fe896       O906   1.982       .  S
Fe897       O915   2.074       .  S
Fe897       O902   2.081       .  S
Fe897       O909   2.085       .  S
Fe897       O898   2.079       .  S
Fe897       O906   1.987       .  S
O898        C905   1.270       .  A
O899        C913   1.269       .  A
O900        C905   1.266       .  A
O901        C904   1.266       .  A
O902        C914   1.272       .  A
O903        C916   1.269       .  A
C904        O909   1.272       .  A
C904       C1285   1.470       .  S
C905       C1276   1.478       .  S
O907        C910   1.269       .  A
O908        C910   1.266       .  A
C910        C985   1.476       .  S
O911        C916   1.267       .  A
O912        C914   1.269       .  A
C913        O915   1.270       .  A
C913       C1036   1.480       .  S
C914       C1045   1.483       .  S
C916       C1000   1.480       .  S
Fe917       O933   2.056       .  S
Fe917       O923   2.049       .  S
Fe918       O929   2.068       .  S
Fe918       O934   2.051       .  S
Fe918       O928   1.977       .  S
Fe919       O924   2.092       .  S
Fe919       O920   2.074       .  S
Fe919       O928   1.988       .  S
O920        C927   1.271       .  A
O921        C935   1.269       .  A
O922        C927   1.268       .  A
O923        C926   1.265       .  A
O924        C936   1.272       .  A
O925        C938   1.265       .  A
C926        O931   1.271       .  A
C926       C1072   1.475       .  S
C927       C1060   1.474       .  S
O929        C932   1.270       .  A
O930        C932   1.269       .  A
C932       C1228   1.479       .  S
O933        C938   1.266       .  A
O934        C936   1.266       .  A
C935        O937   1.272       .  A
C935        C976   1.482       .  S
C936        C961   1.492       .  S
C938       C1240   1.477       .  S
Fe939       O955   2.056       .  S
Fe939       O945   2.051       .  S
Fe939       O952   2.066       .  S
Fe939       O944   2.048       .  S
Fe939       O950   1.975       .  S
Fe940       O943   2.069       .  S
Fe940       O947   2.074       .  S
Fe940       O951   2.079       .  S
Fe940       O956   2.063       .  S
Fe940       O950   1.979       .  S
Fe941       O959   2.071       .  S
Fe941       O946   2.078       .  S
Fe941       O953   2.079       .  S
Fe941       O942   2.075       .  S
Fe941       O950   1.992       .  S
O942        C949   1.269       .  A
O943        C957   1.273       .  A
O944        C949   1.266       .  A
O945        C948   1.266       .  A
O946        C958   1.270       .  A
O947        C960   1.267       .  A
C948        O953   1.270       .  A
C948       C1021   1.467       .  S
C949       C1012   1.477       .  S
O951        C954   1.273       .  A
O952        C954   1.270       .  A
C954       C1204   1.489       .  S
O955        C960   1.265       .  A
O956        C958   1.269       .  A
C957        O959   1.270       .  A
C957        C973   1.492       .  S
C958        C964   1.488       .  S
C960       C1216   1.480       .  S
C961        C962   1.407       .  A
C961        C966   1.418       .  A
C962        C963   1.407       .  A
C962        H971   1.084       .  S
C963        C964   1.417       .  A
C963        S967   1.802       .  S
C964        C965   1.402       .  A
C965        C966   1.401       .  A
C965        H972   1.083       .  S
C966        S968   1.811       .  S
S967        H970   1.407       .  S
S968        H969   1.407       .  S
C973        C974   1.406       .  A
C973        C978   1.422       .  A
C974        C975   1.397       .  A
C974        H983   1.084       .  S
C975        C976   1.414       .  A
C975        S979   1.805       .  S
C976        C977   1.403       .  A
C977        C978   1.403       .  A
C977        H984   1.084       .  S
C978        S980   1.802       .  S
S979        H982   1.407       .  S
S980        H981   1.402       .  S
C985        C986   1.402       .  A
C985        C990   1.414       .  A
C986        C987   1.401       .  A
C986        H995   1.084       .  S
C987        C988   1.416       .  A
C987        S991   1.804       .  S
C988        C989   1.405       .  A
C989        C990   1.399       .  A
C989        H996   1.084       .  S
C990        S992   1.806       .  S
S991        H994   1.407       .  S
S992        H993   1.407       .  S
C997        C998   1.403       .  A
C997       C1002   1.415       .  A
C998        C999   1.396       .  A
C998       H1007   1.084       .  S
C999       C1000   1.414       .  A
C999       S1003   1.804       .  S
C1000      C1001   1.405       .  A
C1001      C1002   1.404       .  A
C1001      H1008   1.084       .  S
C1002      S1004   1.803       .  S
S1003      H1006   1.405       .  S
S1004      H1005   1.407       .  S
C1009      C1010   1.403   1_545  A
C1009      C1014   1.408       .  A
C1010      C1011   1.404       .  A
C1010      H1019   1.084       .  S
C1011      C1012   1.415       .  A
C1011      S1015   1.802       .  S
C1012      C1013   1.405   1_565  A
C1013      C1014   1.394       .  A
C1013      H1020   1.084       .  S
C1014      S1016   1.805       .  S
S1015      H1018   1.407       .  S
S1016      H1017   1.407       .  S
C1021      C1022   1.404       .  A
C1021      C1026   1.411       .  A
C1022      C1023   1.403   1_565  A
C1022      H1031   1.084   1_565  S
C1023      C1024   1.415       .  A
C1023      S1027   1.803       .  S
C1024      C1025   1.405   1_545  A
C1025      C1026   1.395       .  A
C1025      H1032   1.084       .  S
C1026      S1028   1.810       .  S
S1027      H1030   1.407       .  S
S1028      H1029   1.402       .  S
C1033      C1034   1.401       .  A
C1033      C1038   1.415       .  A
C1034      C1035   1.396       .  A
C1034      H1043   1.079       .  S
C1035      C1036   1.414       .  A
C1035      S1039   1.806       .  S
C1036      C1037   1.405       .  A
C1037      C1038   1.403       .  A
C1037      H1044   1.082       .  S
C1038      S1040   1.804       .  S
S1039      H1042   1.403       .  S
S1040      H1041   1.407       .  S
C1045      C1046   1.404       .  A
C1045      C1050   1.414       .  A
C1046      C1047   1.404       .  A
C1046      H1055   1.083       .  S
C1047      C1048   1.417       .  A
C1047      S1051   1.809       .  S
C1048      C1049   1.407       .  A
C1049      C1050   1.402       .  A
C1049      H1056   1.084       .  S
C1050      S1052   1.804       .  S
S1051      H1054   1.407       .  S
S1052      H1053   1.403       .  S
C1057      C1058   1.404       .  A
C1057      C1062   1.410       .  A
C1058      C1059   1.402   1_655  A
C1058      H1067   1.084   1_655  S
C1059      C1060   1.413       .  A
C1059      S1063   1.804       .  S
C1060      C1061   1.404   1_455  A
C1061      C1062   1.398       .  A
C1061      H1068   1.084       .  S
C1062      S1064   1.802       .  S
S1063      H1066   1.407       .  S
S1064      H1065   1.405       .  S
C1069      C1070   1.407   1_655  A
C1069      C1074   1.416       .  A
C1070      C1071   1.396       .  A
C1070      H1079   1.084       .  S
C1071      C1072   1.410       .  A
C1071      S1075   1.805       .  S
C1072      C1073   1.404   1_455  A
C1073      C1074   1.407       .  A
C1073      H1080   1.084       .  S
C1074      S1076   1.799       .  S
S1075      H1078   1.406       .  S
S1076      H1077   1.407       .  S
C1081      C1082   1.405       .  A
C1081      C1086   1.420       .  A
C1082      C1083   1.398       .  A
C1082      H1091   1.081       .  S
C1083      C1084   1.419       .  A
C1083      S1087   1.805       .  S
C1084      C1085   1.407       .  A
C1085      C1086   1.407       .  A
C1085      H1092   1.083       .  S
C1086      S1088   1.799       .  S
S1087      H1090   1.408       .  S
S1088      H1089   1.407       .  S
C1093      C1094   1.404       .  A
C1093      C1098   1.410       .  A
C1094      C1095   1.406       .  A
C1094      H1103   1.084       .  S
C1095      C1096   1.417       .  A
C1095      S1099   1.802       .  S
C1096      C1097   1.404       .  A
C1097      C1098   1.401       .  A
C1097      H1104   1.083       .  S
C1098      S1100   1.804       .  S
S1099      H1102   1.406       .  S
S1100      H1101   1.407       .  S
C1105      C1106   1.404       .  A
C1105      C1110   1.414       .  A
C1106      C1107   1.398       .  A
C1106      H1115   1.084       .  S
C1107      C1108   1.411       .  A
C1107      S1111   1.805       .  S
C1108      C1109   1.404       .  A
C1109      C1110   1.403       .  A
C1109      H1116   1.084       .  S
C1110      S1112   1.800       .  S
S1111      H1114   1.407       .  S
S1112      H1113   1.406       .  S
C1117      C1118   1.408       .  A
C1117      C1122   1.418       .  A
C1118      C1119   1.403       .  A
C1118      H1127   1.084       .  S
C1119      C1120   1.416       .  A
C1119      S1123   1.804       .  S
C1120      C1121   1.404       .  A
C1121      C1122   1.401       .  A
C1121      H1128   1.084       .  S
C1122      S1124   1.799       .  S
S1123      H1126   1.407       .  S
S1124      H1125   1.402       .  S
C1129      C1130   1.404       .  A
C1129      C1134   1.414       .  A
C1130      C1131   1.398       .  A
C1130      H1139   1.084       .  S
C1131      C1132   1.417       .  A
C1131      S1135   1.804       .  S
C1132      C1133   1.407       .  A
C1133      C1134   1.403       .  A
C1133      H1140   1.084       .  S
C1134      S1136   1.803       .  S
S1135      H1138   1.408       .  S
S1136      H1137   1.406       .  S
C1141      C1142   1.401       .  A
C1141      C1146   1.415       .  A
C1142      C1143   1.397       .  A
C1142      H1151   1.084       .  S
C1143      C1144   1.416       .  A
C1143      S1147   1.805       .  S
C1144      C1145   1.405       .  A
C1145      C1146   1.405       .  A
C1145      H1152   1.084       .  S
C1146      S1148   1.803       .  S
S1147      H1150   1.406       .  S
S1148      H1149   1.407       .  S
C1153      C1154   1.402       .  A
C1153      C1158   1.413       .  A
C1154      C1155   1.398       .  A
C1154      H1163   1.083       .  S
C1155      C1156   1.415       .  A
C1155      S1159   1.811       .  S
C1156      C1157   1.405       .  A
C1157      C1158   1.402       .  A
C1157      H1164   1.079       .  S
C1158      S1160   1.803       .  S
S1159      H1162   1.407       .  S
S1160      H1161   1.407       .  S
C1165      C1166   1.402       .  A
C1165      C1170   1.412       .  A
C1166      C1167   1.398       .  A
C1166      H1175   1.084       .  S
C1167      C1168   1.413       .  A
C1167      S1171   1.799       .  S
C1168      C1169   1.406       .  A
C1169      C1170   1.399       .  A
C1169      H1176   1.084       .  S
C1170      S1172   1.806       .  S
S1171      H1174   1.407       .  S
S1172      H1173   1.407       .  S
C1177      C1178   1.402       .  A
C1177      C1182   1.414   1_565  A
C1178      C1179   1.401       .  A
C1178      H1187   1.084       .  S
C1179      C1180   1.413   1_565  A
C1179      S1183   1.805       .  S
C1180      C1181   1.401       .  A
C1181      C1182   1.401       .  A
C1181      H1188   1.084       .  S
C1182      S1184   1.804       .  S
S1183      H1186   1.406       .  S
S1184      H1185   1.407   1_545  S
C1189      C1190   1.405       .  A
C1189      C1194   1.411       .  A
C1190      C1191   1.407   1_565  A
C1190      H1199   1.083   1_565  S
C1191      C1192   1.416       .  A
C1191      S1195   1.802       .  S
C1192      C1193   1.405   1_545  A
C1193      C1194   1.395       .  A
C1193      H1200   1.084       .  S
C1194      S1196   1.809       .  S
S1195      H1198   1.407       .  S
S1196      H1197   1.404       .  S
C1201      C1202   1.407       .  A
C1201      C1206   1.417       .  A
C1202      C1203   1.401       .  A
C1202      H1211   1.084       .  S
C1203      C1204   1.417       .  A
C1203      S1207   1.805       .  S
C1204      C1205   1.405       .  A
C1205      C1206   1.403       .  A
C1205      H1212   1.084       .  S
C1206      S1208   1.798       .  S
S1207      H1210   1.408       .  S
S1208      H1209   1.401       .  S
C1213      C1214   1.407       .  A
C1213      C1218   1.417       .  A
C1214      C1215   1.405       .  A
C1214      H1223   1.084       .  S
C1215      C1216   1.414       .  A
C1215      S1219   1.803       .  S
C1216      C1217   1.401       .  A
C1217      C1218   1.396       .  A
C1217      H1224   1.083       .  S
C1218      S1220   1.805       .  S
S1219      H1222   1.407       .  S
S1220      H1221   1.408       .  S
C1225      C1226   1.401       .  A
C1225      C1230   1.413       .  A
C1226      C1227   1.397       .  A
C1226      H1235   1.085       .  S
C1227      C1228   1.415       .  A
C1227      S1231   1.804       .  S
C1228      C1229   1.406       .  A
C1229      C1230   1.401       .  A
C1229      H1236   1.084       .  S
C1230      S1232   1.804       .  S
S1232      H1233   1.407       .  S
C1237      C1238   1.405       .  A
C1237      C1242   1.414       .  A
C1238      C1239   1.404       .  A
C1238      H1247   1.084       .  S
C1239      C1240   1.416       .  A
C1239      S1243   1.802       .  S
C1240      C1241   1.401       .  A
C1241      C1242   1.392       .  A
C1241      H1248   1.083       .  S
C1242      S1244   1.806       .  S
S1243      H1246   1.407       .  S
S1244      H1245   1.408       .  S
C1249      C1250   1.406       .  A
C1249      C1254   1.419   1_455  A
C1250      C1251   1.410   1_455  A
C1250      H1259   1.083       .  S
C1251      C1252   1.411       .  A
C1251      S1255   1.805   1_655  S
C1252      C1253   1.397       .  A
C1253      C1254   1.395       .  A
C1253      H1260   1.085       .  S
C1254      S1256   1.807       .  S
S1255      H1258   1.407       .  S
S1256      H1257   1.405       .  S
C1261      C1262   1.404       .  A
C1261      C1266   1.417   1_655  A
C1262      C1263   1.405       .  A
C1262      H1271   1.084       .  S
C1263      C1264   1.413   1_655  A
C1263      S1267   1.801       .  S
C1264      C1265   1.400       .  A
C1265      C1266   1.401       .  A
C1265      H1272   1.083       .  S
C1266      S1268   1.811       .  S
S1267      H1270   1.404   1_655  S
S1268      H1269   1.407       .  S
C1273      C1274   1.403       .  A
C1273      C1278   1.408       .  A
C1274      C1275   1.404       .  A
C1274      H1283   1.084       .  S
C1275      C1276   1.415       .  A
C1275      S1279   1.803       .  S
C1276      C1277   1.406       .  A
C1277      C1278   1.394       .  A
C1277      H1284   1.084       .  S
C1278      S1280   1.807       .  S
S1279      H1282   1.406       .  S
S1280      H1281   1.406       .  S
C1285      C1286   1.405       .  A
C1285      C1290   1.414       .  A
C1286      C1287   1.402       .  A
C1286      H1295   1.083       .  S
C1287      C1288   1.408       .  A
C1287      S1291   1.807       .  S
C1288      C1289   1.402       .  A
C1289      C1290   1.400       .  A
C1289      H1296   1.084       .  S
C1290      S1292   1.806       .  S
S1291      H1294   1.407       .  S
S1292      H1293   1.401       .  S
C1297      C1298   1.403       .  A
C1297      C1302   1.415       .  A
C1298      C1299   1.404       .  A
C1298      H1307   1.083       .  S
C1299      C1300   1.418       .  A
C1299      S1303   1.810       .  S
C1300      C1301   1.405       .  A
C1301      C1302   1.404       .  A
C1301      H1308   1.084       .  S
C1302      S1304   1.803       .  S
S1303      H1306   1.407       .  S
S1304      H1305   1.405       .  S
C1309      C1310   1.404       .  A
C1309      C1314   1.414       .  A
C1310      C1311   1.401       .  A
C1310      H1319   1.083       .  S
C1311      C1312   1.412       .  A
C1311      S1315   1.803       .  S
C1312      C1313   1.403       .  A
C1313      C1314   1.397       .  A
C1313      H1320   1.084       .  S
C1314      S1316   1.805       .  S
S1315      H1318   1.407       .  S
S1316      H1317   1.405       .  S
C1321      C1322   1.403       .  A
C1321      C1326   1.417       .  A
C1322      C1323   1.404       .  A
C1322      H1331   1.082       .  S
C1323      C1324   1.414       .  A
C1323      S1327   1.804       .  S
C1324      C1325   1.398       .  A
C1325      C1326   1.394       .  A
C1325      H1332   1.085       .  S
C1326      S1328   1.807       .  S
S1327      H1330   1.403       .  S
S1328      H1329   1.402       .  S
C1333      C1334   1.398       .  A
C1333      C1338   1.412       .  A
C1334      C1335   1.399       .  A
C1334      H1343   1.083       .  S
C1335      C1336   1.415       .  A
C1335      S1339   1.809       .  S
C1336      C1337   1.403       .  A
C1337      C1338   1.401       .  A
C1337      H1344   1.084       .  S
C1338      S1340   1.803       .  S
S1339      H1342   1.407       .  S
S1340      H1341   1.405       .  S
C1345      C1346   1.405       .  A
C1345      C1350   1.413       .  A
C1346      C1347   1.403       .  A
C1346      H1355   1.084       .  S
C1347      C1348   1.415       .  A
C1347      S1351   1.804       .  S
C1348      C1349   1.405       .  A
C1349      C1350   1.398       .  A
C1349      H1356   1.084       .  S
C1350      S1352   1.805       .  S
S1351      H1354   1.408       .  S
S1352      H1353   1.407       .  S
C1357      C1358   1.405       .  A
C1357      C1362   1.414       .  A
C1358      C1359   1.402       .  A
C1358      H1367   1.084       .  S
C1359      C1360   1.413       .  A
C1359      S1363   1.804       .  S
C1360      C1361   1.403       .  A
C1361      C1362   1.398       .  A
C1361      H1368   1.084       .  S
C1362      S1364   1.805       .  S
S1363      H1366   1.407       .  S
S1364      H1365   1.407       .  S
C1369      C1370   1.404       .  A
C1369      C1374   1.415       .  A
C1370      C1371   1.404       .  A
C1370      H1379   1.084       .  S
C1371      C1372   1.422       .  A
C1371      S1375   1.802       .  S
C1372      C1373   1.409       .  A
C1373      C1374   1.402       .  A
C1373      H1380   1.083       .  S
C1374      S1376   1.805       .  S
S1375      H1378   1.404       .  S
S1376      H1377   1.408       .  S
C1381      C1382   1.406       .  A
C1381      C1386   1.412       .  A
C1382      C1383   1.405       .  A
C1382      H1391   1.082       .  S
C1383      C1384   1.416       .  A
C1383      S1387   1.803       .  S
C1384      C1385   1.403       .  A
C1385      C1386   1.398       .  A
C1385      H1392   1.072       .  S
C1386      S1388   1.805       .  S
S1388      H1389   1.407       .  S
