geometry optimzed in LAMMPS
_audit_creation_date              2020-12-01 
_audit_creation_method            'lammps2cif' 
_symmetry_space_group_name_H-M    'P1' 
_symmetry_Int_Tables_number       1 
_symmetry_cell_setting            triclinic 
loop_ 
_symmetry_equiv_pos_as_xyz 
  x,y,z 
_cell_length_a                    35.285484 
_cell_length_b                    33.73892081710743 
_cell_length_c                    23.593070229675572 
_cell_angle_alpha                 90.30967253747683 
_cell_angle_beta                  90.70334230740612 
_cell_angle_gamma                 89.63979472773661 
loop_ 
_atom_site_label 
_atom_site_type_symbol 
_atom_site_fract_x 
_atom_site_fract_y 
_atom_site_fract_z 
_atom_site_charge 
O1          O  0.17396154  0.08501213  0.38472038    -0.70100
O2          O  0.10912104  0.16505375  0.32077419    -0.70400
O3          O  0.17607838  0.16311730  0.37945676    -0.70200
O4          O  0.10811259  0.08324555  0.32543829    -0.70200
O5          O  0.07825509  0.08574324  0.40516068    -0.70200
O6          O  0.14309470  0.16836278  0.45632747    -0.70200
O7          O  0.07719685  0.16628219  0.39866448    -0.70100
O8          O  0.14315104  0.09052562  0.46375073    -0.70300
V9          V  0.14080587  0.12422321  0.35353357     1.35200
V10         V  0.11076043  0.12766876  0.42901351     1.35200
C11         C  0.17073625  0.07669206  0.43665222     0.79100
C12         C  0.08245655  0.18003900  0.34984096     0.79200
C13         C  0.17225380  0.17749018  0.42862585     0.79000
C14         C  0.08286777  0.06932971  0.35736991     0.79000
C15         C  0.01998853  0.03424002  0.34131561     0.03900
C16         C  0.06010041  0.03389057  0.34012437     0.03900
C17         C  0.07907005  0.99909967  0.32169998    -0.16600
C18         C  0.05930901  0.46490216  0.30296456     0.03900
C19         C  0.01900236  0.46561234  0.30169058     0.03900
C20         C  0.00012144  0.00022373  0.32154679    -0.16600
H21         H  0.96937440  0.00075671  0.32145813     0.05900
H22         H  0.10983150  0.99880244  0.32134171     0.05900
C23         C  0.05923380  0.21449748  0.32956199     0.03900
C24         C  0.01893309  0.21515822  0.33284618     0.03900
C25         C  0.99939264  0.25017133  0.31645284    -0.16600
C26         C  0.01858039  0.28441111  0.29755277     0.03900
C27         C  0.05867860  0.28376381  0.29473586     0.03900
C28         C  0.07826322  0.24874574  0.31063142    -0.16600
H29         H  0.10902459  0.24835236  0.30908449     0.05900
H30         H  0.96866416  0.25090045  0.31880261     0.05900
O31         O  0.07454265  0.41518916  0.23404500    -0.70100
O32         O  0.13972398  0.33933011  0.16715686    -0.70400
O33         O  0.07552346  0.33438880  0.22773122    -0.70200
O34         O  0.13929643  0.41656620  0.17449473    -0.70200
O35         O  0.17429413  0.41154037  0.25025821    -0.70200
O36         O  0.10680709  0.33369086  0.30741955    -0.70200
O37         O  0.17122167  0.33403709  0.24637739    -0.70100
O38         O  0.10916090  0.41548330  0.31057579    -0.70300
V39         V  0.10747506  0.37632983  0.20286948     1.35200
V40         V  0.13925769  0.37377836  0.27776890     1.35200
C41         C  0.08161648  0.43000648  0.28223618     0.79100
C42         C  0.16837807  0.32650629  0.19383733     0.79200
C43         C  0.08094439  0.31904875  0.27610332     0.79000
C44         C  0.17026144  0.42390173  0.20005030     0.79000
C45         C  0.77787359  0.24726774  0.08513797    -0.00800
C46         C  0.77704490  0.50052403  0.08212703    -0.00800
O47         O  0.63240430  0.08176203  0.20253087    -0.70100
O48         O  0.56775885  0.16466302  0.25612395    -0.70400
O49         O  0.63085442  0.15933896  0.19367586    -0.70200
O50         O  0.56885210  0.08398160  0.26358465    -0.70200
O51         O  0.60273447  0.08682804  0.34066760    -0.70200
O52         O  0.66430519  0.16559697  0.27117027    -0.70200
O53         O  0.60074721  0.16831552  0.33401930    -0.70100
O54         O  0.66727243  0.08772942  0.27865759    -0.70300
V55         V  0.60024058  0.12256890  0.23099911     1.35200
V56         V  0.63275011  0.12697820  0.30514978     1.35200
C57         C  0.66261758  0.07344224  0.22947006     0.79100
C58         C  0.57382933  0.18161796  0.30346991     0.79200
C59         C  0.65968110  0.17281564  0.21888776     0.79000
C60         C  0.57550261  0.07132801  0.31286364     0.79000
O61         O  0.59795829  0.41663930  0.34891343    -0.70100
O62         O  0.66777462  0.33894436  0.40394236    -0.70400
O63         O  0.60105147  0.33508554  0.34632782    -0.70200
O64         O  0.66446238  0.41697411  0.40511046    -0.70200
O65         O  0.63783780  0.41082123  0.48720732    -0.70200
O66         O  0.56839464  0.33713540  0.42352633    -0.70200
O67         O  0.63449548  0.33350009  0.48015604    -0.70100
O68         O  0.57133328  0.41754192  0.43143278    -0.70300
V69         V  0.63183048  0.37675340  0.37701499     1.35200
V70         V  0.60313868  0.37484164  0.45362186     1.35200
C71         C  0.57452056  0.43231507  0.38272876     0.79100
C72         C  0.66442399  0.32559360  0.45365860     0.79200
C73         C  0.57412501  0.32162455  0.37543743     0.79000
C74         C  0.66425501  0.42451681  0.45760193     0.79000
O75         O  0.46179378  0.33796284  0.34807931    -0.70100
O76         O  0.40060569  0.41955959  0.41399941    -0.70400
O77         O  0.46546197  0.41958818  0.35433922    -0.70200
O78         O  0.39594458  0.34306531  0.40592784    -0.70200
O79         O  0.43034597  0.33460047  0.48203510    -0.70200
O80         O  0.49509820  0.41782522  0.43545437    -0.70200
O81         O  0.42997317  0.41124080  0.49443504    -0.70100
O82         O  0.49581731  0.33697249  0.42515887    -0.70300
V83         V  0.43210855  0.37998275  0.38152904     1.35200
V84         V  0.46274905  0.37533072  0.45731055     1.35200
C85         C  0.48886989  0.32260316  0.37661399     0.79100
C86         C  0.40170572  0.42451146  0.46732649     0.79200
C87         C  0.49048328  0.43379901  0.38727074     0.79000
C88         C  0.39981603  0.32852478  0.45465208     0.79000
C89         C  0.28968876  0.50083130  0.07029708    -0.00800
O90         O  0.43335326  0.15985041  0.19066277    -0.70100
O91         O  0.49810217  0.08668188  0.26488262    -0.70400
O92         O  0.43649219  0.08230191  0.19875225    -0.70200
O93         O  0.49509457  0.16680300  0.25645070    -0.70200
O94         O  0.46269452  0.16738971  0.33394929    -0.70200
O95         O  0.39803138  0.08788071  0.26919879    -0.70200
O96         O  0.46095275  0.08572433  0.33718925    -0.70100
O97         O  0.40006217  0.16608262  0.26725626    -0.70300
V98         V  0.46540440  0.12399274  0.22963793     1.35200
V99         V  0.43142842  0.12662801  0.30114448     1.35200
C100        C  0.40471077  0.17371476  0.21545652     0.79100
C101        C  0.48991991  0.07208822  0.31228653     0.79200
C102        C  0.40495608  0.07414155  0.22028059     0.79000
C103        C  0.48880943  0.18216050  0.30429630     0.79000
C104        C  0.29158216  0.24875025  0.06958617    -0.00800
C105        C  0.55291177  0.03764804  0.33506761     0.03900
C106        C  0.51258192  0.03821624  0.33556272     0.03900
C107        C  0.49314826  0.00417305  0.35406917    -0.16600
C108        C  0.51266838  0.46921544  0.37022791     0.03900
C109        C  0.55257620  0.46827983  0.36735980     0.03900
C110        C  0.57223245  0.00260314  0.35091721    -0.16600
H111        H  0.60284238  0.00172016  0.34925746     0.05900
H112        H  0.46251098  0.00445826  0.35434583     0.05900
C113        C  0.55118820  0.21731212  0.32167840     0.03900
C114        C  0.51098323  0.21738646  0.32316158     0.03900
C115        C  0.49155018  0.25240976  0.33981577    -0.16600
C116        C  0.51102224  0.28738892  0.35586373     0.03900
C117        C  0.55127373  0.28702569  0.35549428     0.03900
C118        C  0.57058748  0.25217221  0.33810635    -0.16600
H119        H  0.60134434  0.25207236  0.33783943     0.05900
H120        H  0.46081802  0.25237182  0.34052109     0.05900
O121        O  0.90536387  0.16293467  0.39202325    -0.70100
O122        O  0.97107278  0.08387307  0.33235368    -0.70400
O123        O  0.90871786  0.08514678  0.39717978    -0.70200
O124        O  0.96903540  0.16560662  0.32864958    -0.70200
O125        O  0.00430029  0.16720101  0.40443427    -0.70200
O126        O  0.94268136  0.09013463  0.47425940    -0.70200
O127        O  0.00504818  0.08594603  0.40944752    -0.70100
O128        O  0.94070601  0.16784304  0.46783274    -0.70300
V129        V  0.93963558  0.12453512  0.36361916     1.35200
V130        V  0.97297700  0.12776123  0.43703923     1.35200
C131        C  0.91010420  0.17608210  0.44168544     0.79100
C132        C  0.99808651  0.06974687  0.36173460     0.79200
C133        C  0.91369456  0.07681070  0.44910165     0.79000
C134        C  0.99672826  0.18089010  0.35577662     0.79000
O135        O  0.00055794  0.33449708  0.23067972    -0.70100
O136        O  0.93458816  0.41411083  0.17278188    -0.70400
O137        O  0.00090085  0.41569765  0.23201991    -0.70200
O138        O  0.93403285  0.33667215  0.17246615    -0.70200
O139        O  0.90433891  0.33557701  0.25254925    -0.70200
O140        O  0.96957526  0.41668098  0.31042521    -0.70200
O141        O  0.90327130  0.41347515  0.25120645    -0.70100
O142        O  0.97071673  0.33491691  0.31051898    -0.70300
V143        V  0.96743453  0.37524004  0.20399367     1.35200
V144        V  0.93803408  0.37527715  0.28007236     1.35200
C145        C  0.99600862  0.31976762  0.27928168     0.79100
C146        C  0.90526798  0.42376072  0.19980722     0.79200
C147        C  0.99582756  0.43094693  0.28067662     0.79000
C148        C  0.90596163  0.32540385  0.20098790     0.79000
C149        C  0.34368007  0.25115030  0.14552883     0.25200
C150        C  0.31965049  0.22741850  0.11001584    -0.22900
C151        C  0.32464619  0.18598202  0.11145969     0.20100
C152        C  0.35175532  0.16936390  0.14741788     0.25200
C153        C  0.37494312  0.19299034  0.18210006    -0.22800
C154        C  0.37070218  0.23395441  0.18145934     0.20100
F155        F  0.39308640  0.25726561  0.21472417    -0.12800
F156        F  0.34012557  0.29124271  0.14649154    -0.15100
F157        F  0.35587466  0.12967454  0.14741598    -0.15100
F158        F  0.30541697  0.16118253  0.07619608    -0.12800
C159        C  0.30853874  0.03914824  0.16652829     0.25200
C160        C  0.31582544  0.02889151  0.10884867    -0.22900
C161        C  0.35157105  0.04197205  0.08912850     0.20100
C162        C  0.38130363  0.05088968  0.12607370     0.25200
C163        C  0.37528474  0.05466353  0.18462299    -0.22800
C164        C  0.33799017  0.05038030  0.20391647     0.20100
F165        F  0.32950109  0.05814466  0.25883742    -0.12800
F166        F  0.27309936  0.03818963  0.18820933    -0.15100
F167        F  0.41517841  0.06006521  0.10282431    -0.15100
F168        F  0.35784902  0.04952833  0.03393183    -0.12800
C169        C  0.33130599  0.32321082  0.48094813     0.25200
C170        C  0.36851062  0.30782474  0.48141730    -0.22900
C171        C  0.37666515  0.27407700  0.51200048     0.20100
C172        C  0.34604666  0.24686739  0.99810066     0.25200
C173        C  0.31964428  0.27028580  0.02988844    -0.22800
C174        C  0.30303704  0.30586217  0.51418805     0.20100
F175        F  0.26716580  0.32024697  0.50970093    -0.12800
F176        F  0.32253663  0.35563513  0.44944632    -0.15100
F177        F  0.34464871  0.20669310  0.99863265    -0.15100
F178        F  0.41170980  0.25716853  0.50966067    -0.12800
C179        C  0.35925331  0.42729827  0.55225632     0.25200
C180        C  0.36835294  0.44030654  0.49756858    -0.22900
C181        C  0.34161485  0.46244550  0.46794342     0.20100
C182        C  0.30881794  0.47583987  0.49388951     0.25200
C183        C  0.31795582  0.47848204  0.03068320    -0.22800
C184        C  0.34184907  0.44911274  0.05454812     0.20100
F185        F  0.33591015  0.43459962  0.10699247    -0.12800
F186        F  0.39638577  0.40832253  0.05224136    -0.15100
F187        F  0.28934564  0.00197515  0.46097980    -0.15100
F188        F  0.34826815  0.47383904  0.41379696    -0.12800
C189        C  0.75220915  0.43998621  0.02115956     0.25200
C190        C  0.74958754  0.48019376  0.03858513    -0.22900
C191        C  0.74217459  0.49696449  0.49074821     0.20100
C192        C  0.71093131  0.47943067  0.46423044     0.25200
C193        C  0.69671221  0.44404570  0.48490217    -0.22800
C194        C  0.71583952  0.42479472  0.52940343     0.20100
F195        F  0.70199333  0.39082732  0.55087284    -0.12800
F196        F  0.77770474  0.41420485  0.04362297    -0.15100
F197        F  0.69337738  0.49813950  0.42023689    -0.15100
F198        F  0.75213794  0.03344120  0.47231538    -0.12800
C199        C  0.69036935  0.01407874  0.18103082     0.25200
C200        C  0.69396052  0.05289477  0.20054165    -0.22900
C201        C  0.72606401  0.07465309  0.18568232     0.20100
C202        C  0.75208109  0.05975283  0.14635444     0.25200
C203        C  0.74953320  0.02010764  0.12642466    -0.22800
C204        C  0.71856320  0.99718909  0.14724977     0.20100
F205        F  0.71520889  0.95810430  0.13411101    -0.12800
F206        F  0.65969910  0.99229147  0.19515809    -0.15100
F207        F  0.77854905  0.08518439  0.12766933    -0.15100
F208        F  0.73124405  0.11160301  0.20722280    -0.12800
C209        C  0.83692673  0.45583522  0.08304774     0.25200
C210        C  0.80551418  0.47153228  0.11356746    -0.22900
C211        C  0.80776658  0.46815001  0.17394066     0.20100
C212        C  0.84031704  0.45370516  0.20113177     0.25200
C213        C  0.87218311  0.44203880  0.17033259    -0.22800
C214        C  0.86979985  0.44256730  0.11081652     0.20100
F215        F  0.89940764  0.43032823  0.07873906    -0.12800
F216        F  0.83738028  0.45672479  0.02548252    -0.15100
F217        F  0.84070445  0.45220938  0.25866139    -0.15100
F218        F  0.77997937  0.98044432  0.20900640    -0.12800
C219        C  0.83043596  0.01177614  0.48185552     0.25200
C220        C  0.80403972  0.02962122  0.04913124    -0.22900
C221        C  0.83643775  0.04517170  0.07814852     0.20100
C222        C  0.86876731  0.05689866  0.04898141     0.25200
C223        C  0.88407390  0.05619247  0.48112987    -0.22800
C224        C  0.86169733  0.02760021  0.45455440     0.20100
F225        F  0.87111004  0.01354067  0.40250038    -0.12800
F226        F  0.81338864  0.48097690  0.45484212    -0.15100
F227        F  0.89980351  0.06778002  0.07976086    -0.15100
F228        F  0.83900154  0.04431852  0.13562496    -0.12800
C229        C  0.70162364  0.17402267  0.13551939     0.25200
C230        C  0.68925971  0.19201670  0.18587567    -0.22900
C231        C  0.70708605  0.22611157  0.20556525     0.20100
C232        C  0.73577952  0.24327825  0.17404212     0.25200
C233        C  0.75060050  0.22433389  0.12453305    -0.22800
C234        C  0.73271252  0.18885797  0.10656666     0.20100
F235        F  0.74482224  0.16804401  0.06094485    -0.12800
F236        F  0.68453615  0.14070479  0.11544869    -0.15100
F237        F  0.74893228  0.27865025  0.19304780    -0.15100
F238        F  0.69554787  0.24389948  0.25422603    -0.12800
C239        C  0.75936570  0.27650490  0.48154761     0.25200
C240        C  0.74876240  0.27000303  0.04710345    -0.22900
C241        C  0.73304900  0.30689291  0.06351573     0.20100
C242        C  0.69843813  0.30671964  0.54276174     0.25200
C243        C  0.69649941  0.30610284  0.48326896    -0.22800
C244        C  0.72766804  0.29194770  0.45319535     0.20100
F245        F  0.72691040  0.29120398  0.39560524    -0.12800
F246        F  0.78551483  0.25936162  0.44764641    -0.15100
F247        F  0.66902072  0.32059008  0.57394442    -0.15100
F248        F  0.74572043  0.32655537  0.11018354    -0.12800
C249        C  0.85521945  0.27368572  0.19832502     0.25200
C250        C  0.87352180  0.30541365  0.17297166    -0.22900
C251        C  0.85843400  0.32090925  0.12236721     0.20100
C252        C  0.82574060  0.30499607  0.09714669     0.25200
C253        C  0.80737153  0.27183104  0.12073429    -0.22800
C254        C  0.82394169  0.25596189  0.17164515     0.20100
F255        F  0.81064389  0.22263577  0.19616794    -0.12800
F256        F  0.86855467  0.25863444  0.24805541    -0.15100
F257        F  0.81288135  0.32195409  0.04866000    -0.15100
F258        F  0.87506598  0.35236004  0.09750842    -0.12800
C259        C  0.81827714  0.23859529  0.99457906     0.25200
C260        C  0.80502960  0.22269381  0.04699932    -0.22900
C261        C  0.81932296  0.18726665  0.52302648     0.20100
C262        C  0.84775278  0.17169950  0.48842909     0.25200
C263        C  0.87822554  0.19510832  0.47104407    -0.22800
C264        C  0.87780362  0.23551680  0.48281597     0.20100
F265        F  0.90627284  0.25899909  0.46473639    -0.12800
F266        F  0.80319123  0.27162733  0.97055917    -0.15100
F267        F  0.84565453  0.13325702  0.47219847    -0.15100
F268        F  0.79405446  0.16159036  0.54462470    -0.12800
C269        C  0.23707824  0.45083996  0.19606213     0.25200
C270        C  0.20268900  0.44097639  0.16875865    -0.22900
C271        C  0.20280290  0.43840602  0.10936026     0.20100
C272        C  0.23449494  0.44972220  0.07881726     0.25200
C273        C  0.26516004  0.46996783  0.10510075    -0.22800
C274        C  0.26850278  0.46290931  0.16440322     0.20100
F275        F  0.30234271  0.46526383  0.19208230    -0.12800
F276        F  0.24091914  0.44778403  0.25320264    -0.15100
F277        F  0.23609520  0.43706552  0.02465145    -0.15100
F278        F  0.17328934  0.42205365  0.08032479    -0.12800
C279        C  0.25647928  0.26669393  0.16433571     0.25200
C280        C  0.26371413  0.27478729  0.10569518    -0.22900
C281        C  0.23708306  0.29963453  0.07743429     0.20100
C282        C  0.20607737  0.31590689  0.10576592     0.25200
C283        C  0.19966651  0.30720258  0.16308254    -0.22800
C284        C  0.22534862  0.28291504  0.19190825     0.20100
F285        F  0.21916742  0.27273906  0.24666150    -0.12800
F286        F  0.27617491  0.23940783  0.19498500    -0.15100
F287        F  0.18225168  0.34029507  0.07658686    -0.15100
F288        F  0.23989349  0.30669521  0.02103676    -0.12000
C289        C  0.21608845  0.25019725  0.52884954     0.25200
C290        C  0.26343409  0.22237693  0.03413412    -0.22900
C291        C  0.23596617  0.20023838  0.06369725     0.20100
C292        C  0.24028525  0.18995783  0.45732457     0.25200
C293        C  0.20194365  0.20176235  0.45630218    -0.22800
C294        C  0.19082137  0.23321037  0.49044811     0.20100
F295        F  0.15501770  0.24807951  0.48616170    -0.12800
F296        F  0.27960307  0.24927309  0.94126553    -0.15100
F297        F  0.25271154  0.16148636  0.42101680    -0.15100
F298        F  0.24053249  0.19183561  0.11950180    -0.12800
C299        C  0.20127527  0.01517841  0.47205526     0.25200
C300        C  0.20056092  0.05630978  0.46828964    -0.22900
C301        C  0.20562167  0.07046558  0.03639426     0.20100
C302        C  0.23948807  0.05671718  0.05977066     0.25200
C303        C  0.25952401  0.02475102  0.03475497    -0.22800
C304        C  0.22502481  0.99702454  0.51191192     0.20100
F305        F  0.22350655  0.95694854  0.51693817    -0.12800
F306        F  0.17753001  0.99281932  0.43956546    -0.15100
F307        F  0.25216521  0.07606802  0.10631611    -0.15100
F308        F  0.18562653  0.09816307  0.06533924    -0.12800
O309        O  0.16349042  0.08579473  0.90339229    -0.70100
O310        O  0.09813002  0.16549537  0.84444257    -0.70400
O311        O  0.16486901  0.16367598  0.90097761    -0.70200
O312        O  0.09758464  0.08428703  0.84638316    -0.70200
O313        O  0.06915974  0.08485562  0.92745851    -0.70200
O314        O  0.13366006  0.16708932  0.97957340    -0.70200
O315        O  0.06713843  0.16527317  0.92338035    -0.70100
O316        O  0.13443739  0.08975981  0.98403823    -0.70300
V317        V  0.13002637  0.12492294  0.87483221     1.35200
V318        V  0.10122726  0.12679076  0.95157854     1.35200
C319        C  0.16171245  0.07705434  0.95529125     0.79100
C320        C  0.07214409  0.17980834  0.87502370     0.79200
C321        C  0.16269797  0.17593594  0.95153722     0.79000
C322        C  0.07346326  0.06932191  0.87906032     0.79000
C323        C  0.01179386  0.03424310  0.85820852     0.03900
C324        C  0.05178813  0.03357890  0.86202422     0.03900
C325        C  0.07171614  0.99820096  0.84929639    -0.16600
C326        C  0.05280906  0.46346994  0.83151323     0.03900
C327        C  0.01278506  0.46464208  0.82538118     0.03900
C328        C  0.99286710  0.99975690  0.83958364    -0.16600
H329        H  0.96214101  0.00019866  0.83620363     0.05900
H330        H  0.10246801  0.99794531  0.85237531     0.05900
C331        C  0.05000624  0.21475754  0.85712360     0.03900
C332        C  0.01003579  0.21592746  0.86015107     0.03900
C333        C  0.99106502  0.25146032  0.84537245    -0.16600
C334        C  0.01114519  0.28546845  0.82801460     0.03900
C335        C  0.05136278  0.28396635  0.82565300     0.03900
C336        C  0.07002120  0.24858847  0.84041642    -0.16600
H337        H  0.10075721  0.24739310  0.83912337     0.05900
H338        H  0.96034822  0.25248303  0.84659564     0.05900
O339        O  0.07009177  0.41312699  0.76541446    -0.70100
O340        O  0.13789559  0.33835947  0.70241880    -0.70400
O341        O  0.07154769  0.33288920  0.75885369    -0.70200
O342        O  0.13544953  0.41576985  0.71112288    -0.70200
O343        O  0.16851439  0.41138247  0.78918304    -0.70200
O344        O  0.10081487  0.33191582  0.84024082    -0.70200
O345        O  0.16789983  0.33359470  0.78314597    -0.70100
O346        O  0.10198394  0.41350119  0.84448501    -0.70300
V347        V  0.10405558  0.37478735  0.73642952     1.35200
V348        V  0.13379122  0.37242346  0.81329141     1.35200
C349        C  0.07557908  0.42811225  0.81385013     0.79100
C350        C  0.16624295  0.32615422  0.73043173     0.79200
C351        C  0.07510632  0.31813321  0.80781835     0.79000
C352        C  0.16422249  0.42562066  0.74019497     0.79000
C353        C  0.78940685  0.24828939  0.57673320    -0.00800
C354        C  0.79021342  0.50228211  0.57334748    -0.00800
O355        O  0.63374323  0.08820070  0.66279434    -0.70100
O356        O  0.56757246  0.16419073  0.72944488    -0.70400
O357        O  0.63162583  0.16560559  0.66679649    -0.70200
O358        O  0.57035616  0.08313744  0.72531857    -0.70200
O359        O  0.60402960  0.08248422  0.80287541    -0.70200
O360        O  0.66533655  0.16454347  0.74421359    -0.70200
O361        O  0.60183655  0.16397261  0.80644963    -0.70100
O362        O  0.66726473  0.08670457  0.74073757    -0.70300
V363        V  0.60096153  0.12526482  0.69808035     1.35200
V364        V  0.63352804  0.12446364  0.77246011     1.35200
C365        C  0.66329049  0.07722607  0.68913801     0.79100
C366        C  0.57443810  0.17859300  0.77815807     0.79200
C367        C  0.66134738  0.17582140  0.69345115     0.79000
C368        C  0.57764357  0.06759193  0.77303234     0.79000
O369        O  0.60645682  0.41217982  0.81965585    -0.70100
O370        O  0.66775450  0.33350938  0.89434673    -0.70400
O371        O  0.60520038  0.33048145  0.82657793    -0.70200
O372        O  0.66973730  0.41132503  0.88517324    -0.70200
O373        O  0.63444209  0.41705068  0.95975914    -0.70200
O374        O  0.57082241  0.33497264  0.90178269    -0.70200
O375        O  0.63261970  0.33967350  0.96903073    -0.70100
O376        O  0.57224472  0.41542568  0.89514395    -0.70300
V377        V  0.63630323  0.37189860  0.85734987     1.35200
V378        V  0.60283892  0.37660067  0.92938519     1.35200
C379        C  0.57941123  0.42828672  0.84659500     0.79100
C380        C  0.66200077  0.32624919  0.94623941     0.79200
C381        C  0.57759116  0.31784855  0.85492067     0.79000
C382        C  0.66438700  0.42577411  0.93383628     0.79000
O383        O  0.46666781  0.33526441  0.82152527    -0.70100
O384        O  0.40363020  0.41557016  0.88639887    -0.70400
O385        O  0.46713971  0.41667792  0.82381457    -0.70200
O386        O  0.40244626  0.33723078  0.88214385    -0.70200
O387        O  0.43541909  0.33650042  0.96064854    -0.70200
O388        O  0.50137857  0.41410961  0.90059517    -0.70200
O389        O  0.43886190  0.41429426  0.96259543    -0.70100
O390        O  0.49888599  0.33344207  0.90036065    -0.70300
V391        V  0.43594799  0.37620050  0.85447789     1.35200
V392        V  0.46833845  0.37458882  0.92903744     1.35200
C393        C  0.49268806  0.31951254  0.85159387     0.79100
C394        C  0.40934908  0.42605980  0.93742600     0.79200
C395        C  0.49470865  0.42986902  0.85284653     0.79000
C396        C  0.40649465  0.32563924  0.93260725     0.79000
C397        C  0.27554785  0.49755263  0.59011551    -0.00800
O398        O  0.42104318  0.15612251  0.68402365    -0.70100
O399        O  0.49732484  0.08622309  0.73910067    -0.70400
O400        O  0.43002231  0.07925493  0.68858377    -0.70200
O401        O  0.49005814  0.16612002  0.73454481    -0.70200
O402        O  0.46685125  0.16296371  0.81919869    -0.70200
O403        O  0.39863379  0.08243495  0.76679568    -0.70200
O404        O  0.46736889  0.08142255  0.81847410    -0.70100
O405        O  0.39725175  0.16023458  0.76845123    -0.70300
V406        V  0.45945402  0.12216078  0.71350731     1.35200
V407        V  0.43351303  0.12183931  0.79232604     1.35200
C408        C  0.39467777  0.16757069  0.71610618     0.79100
C409        C  0.49348008  0.06930157  0.78628331     0.79200
C410        C  0.40131022  0.06961518  0.71642234     0.79000
C411        C  0.48912694  0.17941296  0.78462216     0.79000
C412        C  0.28053506  0.25191055  0.58589446    -0.00800
C413        C  0.55628508  0.03233217  0.79291608     0.03900
C414        C  0.51664545  0.03385951  0.80089310     0.03900
C415        C  0.49770693  0.99986942  0.82014478    -0.16600
C416        C  0.51719746  0.46433470  0.83245507     0.03900
C417        C  0.55705558  0.46270509  0.82525417     0.03900
C418        C  0.57608334  0.99670810  0.80541024    -0.16600
H419        H  0.60653390  0.99578188  0.80107393     0.05900
H420        H  0.46731967  0.00102133  0.82544803     0.05900
C421        C  0.55274069  0.21363405  0.79965162     0.03900
C422        C  0.51254758  0.21439442  0.80107701     0.03900
C423        C  0.49401077  0.24983719  0.81681370    -0.16600
C424        C  0.51429244  0.28418835  0.83263955     0.03900
C425        C  0.55448301  0.28308130  0.83459231     0.03900
C426        C  0.57305422  0.24785782  0.81705984    -0.16600
H427        H  0.60380577  0.24706610  0.81686172     0.05900
H428        H  0.46325868  0.25062096  0.81717766     0.05900
O429        O  0.89817232  0.16413556  0.90827737    -0.70100
O430        O  0.96187211  0.08313767  0.84774246    -0.70400
O431        O  0.89729917  0.08655965  0.90813666    -0.70200
O432        O  0.96264700  0.16506224  0.84802018    -0.70200
O433        O  0.99337371  0.16641097  0.92818819    -0.70200
O434        O  0.93186171  0.08383768  0.98461921    -0.70200
O435        O  0.99613821  0.08543149  0.92455938    -0.70100
O436        O  0.92931415  0.16086137  0.98821677    -0.70300
V437        V  0.93108228  0.12467678  0.87898209     1.35200
V438        V  0.96256800  0.12418152  0.95431671     1.35200
C439        C  0.90058045  0.17236321  0.96052685     0.79100
C440        C  0.98927231  0.06944346  0.87699860     0.79200
C441        C  0.90143525  0.07509514  0.95883718     0.79000
C442        C  0.98787493  0.18085109  0.87932204     0.79000
O443        O  0.99714557  0.33415327  0.75894415    -0.70100
O444        O  0.93654804  0.41219220  0.68912077    -0.70400
O445        O  0.99800854  0.41442752  0.75619862    -0.70200
O446        O  0.93436473  0.33439969  0.69340463    -0.70200
O447        O  0.89893393  0.33814073  0.76809156    -0.70200
O448        O  0.96329128  0.41676235  0.83138149    -0.70200
O449        O  0.90111729  0.41615621  0.76366501    -0.70100
O450        O  0.96199355  0.33551108  0.83374976    -0.70300
V451        V  0.96616031  0.37381897  0.72635304     1.35200
V452        V  0.93234993  0.37659398  0.79826695     1.35200
C453        C  0.98947833  0.32027910  0.80684376     0.79100
C454        C  0.90712158  0.42518552  0.71247144     0.79200
C455        C  0.99082386  0.43012832  0.80377185     0.79000
C456        C  0.90428462  0.32515105  0.71866661     0.79000
C457        C  0.32773694  0.24695612  0.66817922     0.25200
C458        C  0.30340423  0.22625199  0.62912833    -0.22900
C459        C  0.30521267  0.18456241  0.62897981     0.20100
C460        C  0.33455020  0.16523850  0.65883702     0.25200
C461        C  0.36079808  0.18684936  0.69208204    -0.22800
C462        C  0.35564150  0.22730983  0.69937446     0.20100
F463        F  0.37977582  0.24839740  0.73299898    -0.12800
F464        F  0.32744949  0.28714449  0.67131120    -0.15100
F465        F  0.33811747  0.12550421  0.65352760    -0.15100
F466        F  0.28050826  0.16263291  0.59795025    -0.12800
C467        C  0.30185142  0.03548466  0.68039360     0.25200
C468        C  0.30496141  0.02450788  0.62226787    -0.22900
C469        C  0.33901106  0.03537781  0.59572378     0.20100
C470        C  0.37117072  0.04487647  0.62733251     0.25200
C471        C  0.36938182  0.04985321  0.68657073    -0.22800
C472        C  0.33389947  0.04620244  0.71245090     0.20100
F473        F  0.32958587  0.05483787  0.76829901    -0.12800
F474        F  0.26778114  0.03756551  0.70637421    -0.15100
F475        F  0.40358822  0.05169940  0.59858884    -0.15100
F476        F  0.34127176  0.03848134  0.53873583    -0.12800
C477        C  0.34843595  0.32859401  0.98886772     0.25200
C478        C  0.37555581  0.30543227  0.96121651    -0.22900
C479        C  0.37413440  0.26438236  0.96545820     0.20100
C480        C  0.34889629  0.25611371  0.54333499     0.25200
C481        C  0.31167743  0.27344745  0.55016403    -0.22800
C482        C  0.32274871  0.31187259  0.02597617     0.20100
F483        F  0.30308053  0.33704685  0.05966647    -0.12800
F484        F  0.34683260  0.36797281  0.97985727    -0.15100
F485        F  0.35913931  0.21993150  0.56312979    -0.15100
F486        F  0.39958353  0.24129204  0.93762521    -0.12800
C487        C  0.37369758  0.43549410  0.02609608     0.25200
C488        C  0.38032907  0.44690001  0.96991293    -0.22900
C489        C  0.35698680  0.47508993  0.94459477     0.20100
C490        C  0.32838909  0.49298833  0.97579774     0.25200
C491        C  0.30044295  0.46735448  0.55275577    -0.22800
C492        C  0.32499802  0.43864949  0.57778383     0.20100
F493        F  0.31500635  0.41793616  0.62370887    -0.12800
F494        F  0.38250411  0.40155121  0.58017634    -0.15100
F495        F  0.31397179  0.02709822  0.95376847    -0.15100
F496        F  0.36370232  0.48761668  0.89103013    -0.12800
C497        C  0.74926057  0.44009845  0.55259185     0.25200
C498        C  0.76260043  0.47757277  0.53561792    -0.22900
C499        C  0.71863743  0.50303605  0.01593270     0.20100
C500        C  0.69101516  0.48589719  0.98095357     0.25200
C501        C  0.69499770  0.44665000  0.96351363    -0.22800
C502        C  0.72683168  0.42474008  0.98096350     0.20100
F503        F  0.73231213  0.38734563  0.96113094    -0.12800
F504        F  0.76682620  0.41884520  0.59390722    -0.15100
F505        F  0.66080112  0.50786058  0.96322221    -0.15100
F506        F  0.71542745  0.04240823  0.02745072    -0.12800
C507        C  0.70864114  0.02172915  0.67754569     0.25200
C508        C  0.69451055  0.05792363  0.65915418    -0.22900
C509        C  0.71305200  0.07806149  0.61572652     0.20100
C510        C  0.74641912  0.06305105  0.59218254     0.25200
C511        C  0.76062323  0.02564796  0.60880830    -0.22800
C512        C  0.74020334  0.00508929  0.65172322     0.20100
F513        F  0.75091114  0.96863190  0.66993230    -0.12800
F514        F  0.69099990  0.00168543  0.71935996    -0.15100
F515        F  0.76342641  0.08457118  0.55148829    -0.15100
F516        F  0.69863906  0.11244385  0.59572590    -0.12800
C517        C  0.84139316  0.44916792  0.59064071     0.25200
C518        C  0.81791853  0.47925120  0.61337673    -0.22900
C519        C  0.82719213  0.49321986  0.66934574     0.20100
C520        C  0.85602366  0.47568859  0.70149358     0.25200
C521        C  0.87861242  0.44611661  0.67800646    -0.22800
C522        C  0.87170969  0.43363856  0.62189276     0.20100
F523        F  0.89326810  0.40471854  0.59790841    -0.12800
F524        F  0.83548026  0.43489527  0.53747494    -0.15100
F525        F  0.86299511  0.48903310  0.75501916    -0.15100
F526        F  0.80982197  0.02497383  0.69345988    -0.12800
C527        C  0.80496177  0.03179810  0.98830545     0.25200
C528        C  0.81872779  0.02595287  0.53633090    -0.22900
C529        C  0.84163617  0.05552515  0.56205837     0.20100
C530        C  0.87443149  0.06923666  0.53587321     0.25200
C531        C  0.86936221  0.05709973  0.98945142    -0.22800
C532        C  0.83664328  0.04565392  0.95987496     0.20100
F533        F  0.83557714  0.04606352  0.90226706    -0.12800
F534        F  0.77725312  0.51779900  0.95362854    -0.15100
F535        F  0.89558641  0.09717595  0.56298946    -0.15100
F536        F  0.83298054  0.07068176  0.61364226    -0.12800
C537        C  0.69624378  0.19392389  0.60496656     0.25200
C538        C  0.69340879  0.19512327  0.66430646    -0.22900
C539        C  0.72486755  0.20789311  0.69594286     0.20100
C540        C  0.75794397  0.22020564  0.66961637     0.25200
C541        C  0.76136517  0.22008703  0.60911101    -0.22800
C542        C  0.73022657  0.20354260  0.57824908     0.20100
F543        F  0.73096587  0.20087805  0.52081867    -0.12800
F544        F  0.66632503  0.18234779  0.57222845    -0.15100
F545        F  0.78480730  0.23454412  0.70544709    -0.15100
F546        F  0.72337933  0.20998200  0.75342046    -0.12800
C547        C  0.73189702  0.25074741  0.99872627     0.25200
C548        C  0.76178612  0.27622388  0.54227827    -0.22900
C549        C  0.73091342  0.29391391  0.57148245     0.20100
C550        C  0.70362831  0.32414285  0.03178385     0.25200
C551        C  0.69028968  0.30606431  0.98158232    -0.22800
C552        C  0.70450094  0.26943690  0.96544007     0.20100
F553        F  0.69089457  0.25101548  0.91812493    -0.12800
F554        F  0.74290021  0.21426056  0.98095046    -0.15100
F555        F  0.68887823  0.35935525  0.04930156    -0.15100
F556        F  0.73050054  0.29541159  0.62902172    -0.12800
C557        C  0.87463422  0.26428315  0.67839965     0.25200
C558        C  0.87359658  0.30491237  0.68834819    -0.22900
C559        C  0.84335101  0.32758440  0.66690882     0.20100
C560        C  0.81614365  0.31082419  0.63094174     0.25200
C561        C  0.81630493  0.26948448  0.62010368    -0.22800
C562        C  0.84587608  0.24651607  0.64633884     0.20100
F563        F  0.84700306  0.20645938  0.64022308    -0.12800
F564        F  0.90328855  0.24175615  0.70006872    -0.15100
F565        F  0.79157215  0.33610379  0.60523314    -0.15100
F566        F  0.84076075  0.36671411  0.67946556    -0.12800
C567        C  0.84751678  0.25221041  0.51230766     0.25200
C568        C  0.81820143  0.22823127  0.53559879    -0.22900
C569        C  0.82460005  0.18931384  0.06876079     0.20100
C570        C  0.85651415  0.17428209  0.04153880     0.25200
C571        C  0.86863040  0.19041532  0.99015466    -0.22800
C572        C  0.84818602  0.22124976  0.96563519     0.20100
F573        F  0.85837298  0.23605851  0.91463331    -0.12800
F574        F  0.84698798  0.29222842  0.51888103    -0.15100
F575        F  0.87544216  0.14343685  0.06541333    -0.15100
F576        F  0.81376504  0.17150222  0.11723207    -0.12800
C577        C  0.23198236  0.44263568  0.72164756     0.25200
C578        C  0.19318189  0.45014537  0.71392062    -0.22900
C579        C  0.18169763  0.47748683  0.67369521     0.20100
C580        C  0.20764389  0.49393038  0.63740527     0.25200
C581        C  0.24656033  0.48030998  0.63507992    -0.22800
C582        C  0.25838321  0.45773116  0.68336584     0.20100
F583        F  0.29521874  0.45567491  0.69998426    -0.12800
F584        F  0.24434258  0.41904741  0.76461283    -0.15100
F585        F  0.19389732  0.52595776  0.60919751    -0.15100
F586        F  0.14482990  0.48935165  0.67033616    -0.12800
C587        C  0.25280658  0.31525864  0.63767288     0.25200
C588        C  0.25442305  0.27393530  0.62892358    -0.22900
C589        C  0.22832118  0.25017101  0.65986347     0.20100
C590        C  0.20142933  0.26693201  0.69570143     0.25200
C591        C  0.19823825  0.30784171  0.70016369    -0.22800
C592        C  0.22360954  0.33179858  0.67019703     0.20100
F593        F  0.21870852  0.37146230  0.66955497    -0.12800
F594        F  0.27812637  0.33997946  0.61399084    -0.15100
F595        F  0.17675466  0.24315145  0.72296414    -0.15100
F596        F  0.22743231  0.21023125  0.65277518    -0.12000
C597        C  0.25671710  0.22760267  0.97461933     0.25200
C598        C  0.25309476  0.23346265  0.53955786    -0.22900
C599        C  0.26545145  0.20511041  0.49893830     0.20100
C600        C  0.20195081  0.18907448  0.03784422     0.25200
C601        C  0.19568628  0.19479314  0.97965259    -0.22800
C602        C  0.22399376  0.21292527  0.94807468     0.20100
F603        F  0.21918119  0.21848092  0.89144057    -0.12800
F604        F  0.20368374  0.28436483  0.55304630    -0.15100
F605        F  0.17494091  0.17265232  0.07053813    -0.15100
F606        F  0.30175551  0.19177597  0.49910072    -0.12800
C607        C  0.21303287  0.02755869  0.95554330     0.25200
C608        C  0.19296573  0.05684580  0.98349318    -0.22900
C609        C  0.22388598  0.07911843  0.50403678     0.20100
C610        C  0.24938017  0.06142396  0.54164187     0.25200
C611        C  0.25058964  0.01983378  0.54651488    -0.22800
C612        C  0.24426740  0.01013312  0.98157579     0.20100
F613        F  0.25871242  0.97865112  0.95287333    -0.12800
F614        F  0.20124880  0.01422370  0.90381411    -0.15100
F615        F  0.26944674  0.08542110  0.57684202    -0.15100
F616        F  0.21958741  0.11891896  0.50607061    -0.12800
O617        O  0.17394591  0.58498408  0.38478078    -0.70100
O618        O  0.10912873  0.66504642  0.32082804    -0.70400
O619        O  0.17608159  0.66309030  0.37951635    -0.70200
O620        O  0.10810299  0.58324128  0.32548613    -0.70200
O621        O  0.07824778  0.58573370  0.40521094    -0.70200
O622        O  0.14309068  0.66835271  0.45637800    -0.70200
O623        O  0.07719245  0.66627373  0.39870687    -0.70100
O624        O  0.14313934  0.59051246  0.46381228    -0.70300
V625        V  0.14080255  0.62420686  0.35359001     1.35200
V626        V  0.11075350  0.62765869  0.42906580     1.35200
C627        C  0.17071867  0.57666531  0.43671334     0.79100
C628        C  0.08245942  0.68003184  0.34988525     0.79200
C629        C  0.17225402  0.67747144  0.42867885     0.79000
C630        C  0.08285862  0.56932492  0.35741603     0.79000
C631        C  0.01998036  0.53424218  0.34133669     0.03900
C632        C  0.06009176  0.53388971  0.34016045     0.03900
C633        C  0.07906272  0.49910218  0.32172942    -0.16600
C634        C  0.05931510  0.96489527  0.30295132     0.03900
C635        C  0.01900858  0.96560490  0.30168346     0.03900
C636        C  0.00011407  0.50022970  0.32155484    -0.16600
H637        H  0.96936710  0.50076385  0.32145870     0.05900
H638        H  0.10982428  0.49880459  0.32137815     0.05900
C639        C  0.05923843  0.71449007  0.32959367     0.03900
C640        C  0.01893631  0.71515175  0.33286349     0.03900
C641        C  0.99939943  0.75016263  0.31645036    -0.16600
C642        C  0.01858988  0.78439920  0.29754312     0.03900
C643        C  0.05868878  0.78375034  0.29473323     0.03900
C644        C  0.07827061  0.74873462  0.31065149    -0.16600
H645        H  0.10903217  0.74834016  0.30911285     0.05900
H646        H  0.96867061  0.75089345  0.31879300     0.05900
O647        O  0.07455086  0.91517963  0.23403527    -0.70100
O648        O  0.13973912  0.83932271  0.16714994    -0.70400
O649        O  0.07553434  0.83437697  0.22772521    -0.70200
O650        O  0.13930560  0.91655762  0.17449105    -0.70200
O651        O  0.17429460  0.91154277  0.25026536    -0.70200
O652        O  0.10682300  0.83367370  0.30740868    -0.70200
O653        O  0.17124092  0.83404049  0.24636798    -0.70100
O654        O  0.10916009  0.91546831  0.31057520    -0.70300
V655        V  0.10748558  0.87632016  0.20286326     1.35200
V656        V  0.13926602  0.87377111  0.27776517     1.35200
C657        C  0.08162062  0.92999559  0.28222885     0.79100
C658        C  0.16839755  0.82650657  0.19382820     0.79200
C659        C  0.08095767  0.81903365  0.27609536     0.79000
C660        C  0.17026703  0.92389688  0.20005364     0.79000
C661        C  0.77785782  0.74727908  0.08513271    -0.00800
C662        C  0.77705020  0.00050747  0.08212577    -0.00800
O663        O  0.63240433  0.58176379  0.20257422    -0.70100
O664        O  0.56775992  0.66466907  0.25615952    -0.70400
O665        O  0.63084945  0.65934169  0.19369913    -0.70200
O666        O  0.56885582  0.58398853  0.26363783    -0.70200
O667        O  0.60275574  0.58682756  0.34070320    -0.70200
O668        O  0.66429413  0.66562846  0.27119489    -0.70200
O669        O  0.60074194  0.66831588  0.33406156    -0.70100
O670        O  0.66728939  0.58775835  0.27867908    -0.70300
V671        V  0.60024091  0.62257344  0.23103776     1.35200
V672        V  0.63275594  0.62699276  0.30518120     1.35200
C673        C  0.66262626  0.57345794  0.22950119     0.79100
C674        C  0.57382599  0.68161951  0.30350997     0.79200
C675        C  0.65966827  0.67283799  0.21890918     0.79000
C676        C  0.57551638  0.57132975  0.31291125     0.79000
O677        O  0.59795113  0.91663789  0.34888182    -0.70100
O678        O  0.66777954  0.83896187  0.40393985    -0.70400
O679        O  0.60105469  0.83508392  0.34632984    -0.70200
O680        O  0.66445682  0.91699489  0.40507629    -0.70200
O681        O  0.63784134  0.91084268  0.48718022    -0.70200
O682        O  0.56839179  0.83715584  0.42352121    -0.70200
O683        O  0.63449392  0.83351880  0.48014720    -0.70100
O684        O  0.57133703  0.91756208  0.43140899    -0.70300
V685        V  0.63182990  0.87676239  0.37699813     1.35200
V686        V  0.60313973  0.87486163  0.45360619     1.35200
C687        C  0.57451739  0.93232228  0.38269574     0.79100
C688        C  0.66442373  0.82560880  0.45365429     0.79200
C689        C  0.57412421  0.82163268  0.37544109     0.79000
C690        C  0.66425245  0.92454208  0.45756667     0.79000
O691        O  0.46178768  0.83795733  0.34809650    -0.70100
O692        O  0.40061342  0.91957471  0.41398511    -0.70400
O693        O  0.46546154  0.91958236  0.35431563    -0.70200
O694        O  0.39594337  0.84307799  0.40595633    -0.70200
O695        O  0.43035315  0.83462590  0.48205792    -0.70200
O696        O  0.49510077  0.91783940  0.43542966    -0.70200
O697        O  0.42998340  0.91126953  0.49442211    -0.70100
O698        O  0.49581925  0.83698597  0.42516888    -0.70300
V699        V  0.43210823  0.87998659  0.38153082     1.35200
V700        V  0.46275431  0.87535045  0.45730944     1.35200
C701        C  0.48886760  0.82260619  0.37663203     0.79100
C702        C  0.40171768  0.92453903  0.46730919     0.79200
C703        C  0.49048223  0.93380219  0.38723963     0.79000
C704        C  0.39982040  0.82854481  0.45468462     0.79000
C705        C  0.28968584  0.00079648  0.07029633    -0.00800
O706        O  0.43335671  0.65984710  0.19072068    -0.70100
O707        O  0.49810936  0.58667879  0.26493355    -0.70400
O708        O  0.43650298  0.58229709  0.19879845    -0.70200
O709        O  0.49509606  0.66679814  0.25651017    -0.70200
O710        O  0.46269010  0.66738541  0.33400304    -0.70200
O711        O  0.39804251  0.58786143  0.26924723    -0.70200
O712        O  0.46096296  0.58572036  0.33724360    -0.70100
O713        O  0.40005779  0.66606401  0.26730885    -0.70300
V714        V  0.46540968  0.62398860  0.22969181     1.35200
V715        V  0.43143156  0.62661653  0.30119686     1.35200
C716        C  0.40470971  0.67370321  0.21551236     0.79100
C717        C  0.48993061  0.57208698  0.31233978     0.79200
C718        C  0.40496868  0.57412858  0.22032531     0.79000
C719        C  0.48880701  0.68215632  0.30435333     0.79000
C720        C  0.29160308  0.74872459  0.06959133    -0.00800
C721        C  0.55292447  0.53764890  0.33512069     0.03900
C722        C  0.51259393  0.53821698  0.33561566     0.03900
C723        C  0.49315803  0.50417415  0.35411879    -0.16600
C724        C  0.51266230  0.96921676  0.37018267     0.03900
C725        C  0.55256981  0.96828263  0.36731451     0.03900
C726        C  0.57224201  0.50260117  0.35096813    -0.16600
H727        H  0.60285200  0.50171565  0.34930757     0.05900
H728        H  0.46252050  0.50446102  0.35439303     0.05900
C729        C  0.55118456  0.71731224  0.32171945     0.03900
C730        C  0.51097994  0.71738333  0.32321546     0.03900
C731        C  0.49154728  0.75240758  0.33986330    -0.16600
C732        C  0.51101976  0.78739029  0.35589252     0.03900
C733        C  0.55127141  0.78703022  0.35551265     0.03900
C734        C  0.57058426  0.75217536  0.33813086    -0.16600
H735        H  0.60134122  0.75207697  0.33785452     0.05900
H736        H  0.46081509  0.75236851  0.34057522     0.05900
O737        O  0.90536128  0.66293841  0.39204874    -0.70100
O738        O  0.97106039  0.58386916  0.33238117    -0.70400
O739        O  0.90870923  0.58514908  0.39721306    -0.70200
O740        O  0.96903369  0.66560215  0.32867137    -0.70200
O741        O  0.00429222  0.66720505  0.40446208    -0.70200
O742        O  0.94268389  0.59012664  0.47428348    -0.70200
O743        O  0.00504602  0.58595096  0.40946439    -0.70100
O744        O  0.94069793  0.66783500  0.46786558    -0.70300
V745        V  0.93962897  0.62453481  0.36364632     1.35200
V746        V  0.97297270  0.62776002  0.43706440     1.35200
C747        C  0.91009842  0.67607858  0.44171522     0.79100
C748        C  0.99807878  0.56974779  0.36175632     0.79200
C749        C  0.91369442  0.57680478  0.44913098     0.79000
C750        C  0.99672560  0.68088807  0.35579923     0.79000
O751        O  0.00056871  0.83448891  0.23067117    -0.70100
O752        O  0.93459163  0.91409803  0.17277713    -0.70400
O753        O  0.00090555  0.91569065  0.23201189    -0.70200
O754        O  0.93404023  0.83665954  0.17246181    -0.70200
O755        O  0.90434480  0.83556845  0.25254281    -0.70200
O756        O  0.96958471  0.91666867  0.31042153    -0.70200
O757        O  0.90327901  0.91346503  0.25120573    -0.70100
O758        O  0.97072526  0.83490380  0.31050834    -0.70300
V759        V  0.96744126  0.87522994  0.20398718     1.35200
V760        V  0.93804235  0.87526588  0.28006701     1.35200
C761        C  0.99601874  0.81975679  0.27927144     0.79100
C762        C  0.90527250  0.92374772  0.19980507     0.79200
C763        C  0.99583403  0.93093816  0.28067050     0.79000
C764        C  0.90596580  0.82539537  0.20098118     0.79000
C765        C  0.34370026  0.75113373  0.14553441     0.25200
C766        C  0.31966504  0.72739735  0.11003582    -0.22900
C767        C  0.32464362  0.68595972  0.11151774     0.20100
C768        C  0.35174024  0.66934556  0.14750041     0.25200
C769        C  0.37494148  0.69297669  0.18215499    -0.22800
C770        C  0.37071935  0.73394215  0.18147418     0.20100
F771        F  0.39311726  0.75725812  0.21471120    -0.12800
F772        F  0.34015552  0.79122721  0.14647140    -0.15100
F773        F  0.35583507  0.62965446  0.14754808    -0.15100
F774        F  0.30540797  0.66115301  0.07627289    -0.12800
C775        C  0.30855066  0.53915324  0.16655052     0.25200
C776        C  0.31583476  0.52891257  0.10886438    -0.22900
C777        C  0.35158574  0.54198880  0.08915556     0.20100
C778        C  0.38131829  0.55089503  0.12610772     0.25200
C779        C  0.37529951  0.55465256  0.18465922    -0.22800
C780        C  0.33800455  0.55036486  0.20394842     0.20100
F781        F  0.32951673  0.55810995  0.25887505    -0.12800
F782        F  0.27311125  0.53819682  0.18823046    -0.15100
F783        F  0.41519316  0.56007820  0.10286412    -0.15100
F784        F  0.35786996  0.54955816  0.03396496    -0.12800
C785        C  0.33130997  0.82321310  0.48097562     0.25200
C786        C  0.36852027  0.80784234  0.48146188    -0.22900
C787        C  0.37668391  0.77410537  0.51206603     0.20100
C788        C  0.34609063  0.74684636  0.99814054     0.25200
C789        C  0.31966981  0.77026172  0.02989910    -0.22800
C790        C  0.30304404  0.80586146  0.51421788     0.20100
F791        F  0.26717152  0.82024258  0.50973229    -0.12800
F792        F  0.32253145  0.85562560  0.44945426    -0.15100
F793        F  0.34471323  0.70667114  0.99870541    -0.15100
F794        F  0.41173764  0.75721549  0.50975485    -0.12800
C795        C  0.35926625  0.92733986  0.55223273     0.25200
C796        C  0.36836929  0.94034427  0.49754530    -0.22900
C797        C  0.34163485  0.96248202  0.46791207     0.20100
C798        C  0.30883849  0.97588115  0.49385184     0.25200
C799        C  0.31795478  0.97844932  0.03068460    -0.22800
C800        C  0.34186695  0.94910083  0.05456192     0.20100
F801        F  0.33595225  0.93461475  0.10702897    -0.12800
F802        F  0.39641396  0.90832587  0.05225393    -0.15100
F803        F  0.28931901  0.50193175  0.46102197    -0.15100
F804        F  0.34828890  0.97386472  0.41376095    -0.12800
C805        C  0.75222683  0.93998715  0.02110453     0.25200
C806        C  0.74959403  0.98018555  0.03857061    -0.22900
C807        C  0.74214237  0.99701731  0.49076038     0.20100
C808        C  0.71089933  0.97948486  0.46423779     0.25200
C809        C  0.69670968  0.94407286  0.48486230    -0.22800
C810        C  0.71585950  0.92480200  0.52932371     0.20100
F811        F  0.70203995  0.89080820  0.55074659    -0.12800
F812        F  0.77771275  0.91419575  0.04356857    -0.15100
F813        F  0.69331754  0.99821837  0.42029014    -0.15100
F814        F  0.75218783  0.53337233  0.47226194    -0.12800
C815        C  0.69036710  0.51409614  0.18104278     0.25200
C816        C  0.69396653  0.55290758  0.20056863    -0.22900
C817        C  0.72607652  0.57465932  0.18572067     0.20100
C818        C  0.75208397  0.55976473  0.14637375     0.25200
C819        C  0.74952909  0.52012348  0.12643016    -0.22800
C820        C  0.71855794  0.49720612  0.14725664     0.20100
F821        F  0.71520116  0.45812120  0.13412043    -0.12800
F822        F  0.65969436  0.49231161  0.19516697    -0.15100
F823        F  0.77854955  0.58519794  0.12768610    -0.15100
F824        F  0.73127079  0.61159938  0.20728869    -0.12800
C825        C  0.83692408  0.95580716  0.08304811     0.25200
C826        C  0.80551417  0.97151074  0.11356768    -0.22900
C827        C  0.80777107  0.96813843  0.17394243     0.20100
C828        C  0.84032494  0.95370075  0.20113324     0.25200
C829        C  0.87218525  0.94202087  0.17033128    -0.22800
C830        C  0.86979512  0.94253355  0.11081571     0.20100
F831        F  0.89939768  0.93028235  0.07873695    -0.12800
F832        F  0.83738013  0.95669959  0.02548310    -0.15100
F833        F  0.84072296  0.95222811  0.25866436    -0.15100
F834        F  0.77997078  0.48044601  0.20900381    -0.12800
C835        C  0.83046355  0.51173587  0.48189475     0.25200
C836        C  0.80402661  0.52963894  0.04911799    -0.22900
C837        C  0.83642512  0.54519660  0.07812441     0.20100
C838        C  0.86874808  0.55693035  0.04894809     0.25200
C839        C  0.88408090  0.55617798  0.48116251    -0.22800
C840        C  0.86172424  0.52756481  0.45459764     0.20100
F841        F  0.87115713  0.51348992  0.40256044    -0.12800
F842        F  0.81334358  0.98103308  0.45479037    -0.15100
F843        F  0.89978450  0.56781939  0.07972060    -0.15100
F844        F  0.83899937  0.54433966  0.13559981    -0.12800
C845        C  0.70166486  0.67399158  0.13560393     0.25200
C846        C  0.68924111  0.69204142  0.18588615    -0.22900
C847        C  0.70699337  0.72620435  0.20548205     0.20100
C848        C  0.73568304  0.74336678  0.17394271     0.25200
C849        C  0.75057673  0.72435959  0.12453229    -0.22800
C850        C  0.73275958  0.68882267  0.10665938     0.20100
F851        F  0.74493671  0.66794738  0.06113430    -0.12800
F852        F  0.68462639  0.64062785  0.11559897    -0.15100
F853        F  0.74877801  0.77878868  0.19284426    -0.15100
F854        F  0.69538499  0.74405801  0.25405607    -0.12800
C855        C  0.75935190  0.77648844  0.48155453     0.25200
C856        C  0.74874812  0.77001612  0.04710538    -0.22900
C857        C  0.73313039  0.80697493  0.06340382     0.20100
C858        C  0.69842693  0.80671718  0.54276037     0.25200
C859        C  0.69649319  0.80610674  0.48326719    -0.22800
C860        C  0.72766035  0.79194254  0.45319774     0.20100
F861        F  0.72690542  0.79119842  0.39560775    -0.12800
F862        F  0.78549268  0.75932441  0.44765964    -0.15100
F863        F  0.66900843  0.82058887  0.57393969    -0.15100
F864        F  0.74587753  0.82669814  0.10997405    -0.12800
C865        C  0.85514772  0.77375329  0.19839343     0.25200
C866        C  0.87352218  0.80540710  0.17296443    -0.22900
C867        C  0.85849795  0.82084179  0.12228053     0.20100
C868        C  0.82580656  0.80493246  0.09704968     0.25200
C869        C  0.80736092  0.77184354  0.12072200    -0.22800
C870        C  0.82386024  0.75603849  0.17172323     0.20100
F871        F  0.81050184  0.72277018  0.19633079    -0.12800
F872        F  0.86842096  0.75876176  0.24819676    -0.15100
F873        F  0.81301993  0.82181809  0.04846956    -0.15100
F874        F  0.87518647  0.85223397  0.09735430    -0.12800
C875        C  0.81817516  0.73852115  0.99447701     0.25200
C876        C  0.80500069  0.72268939  0.04698502    -0.22900
C877        C  0.81932557  0.68725512  0.52307615     0.20100
C878        C  0.84775348  0.67168923  0.48847517     0.25200
C879        C  0.87821876  0.69510206  0.47107363    -0.22800
C880        C  0.87778932  0.73551237  0.48282968     0.20100
F881        F  0.90625147  0.75899740  0.46473318    -0.12800
F882        F  0.80304384  0.77150723  0.97038869    -0.15100
F883        F  0.84565899  0.63324516  0.47225316    -0.15100
F884        F  0.79407416  0.66157364  0.54470780    -0.12800
C885        C  0.23708156  0.95083736  0.19607754     0.25200
C886        C  0.20269975  0.94095840  0.16876437    -0.22900
C887        C  0.20283040  0.93835091  0.10936886     0.20100
C888        C  0.23452938  0.94965374  0.07883338     0.25200
C889        C  0.26517585  0.96992820  0.10511348    -0.22800
C890        C  0.26851087  0.96289580  0.16442222     0.20100
F891        F  0.30234669  0.96526490  0.19211032    -0.12800
F892        F  0.24091019  0.94780727  0.25322276    -0.15100
F893        F  0.23615863  0.93695757  0.02468798    -0.15100
F894        F  0.17332834  0.92197517  0.08033528    -0.12800
C895        C  0.25650007  0.76668981  0.16433795     0.25200
C896        C  0.26372974  0.77476484  0.10569027    -0.22900
C897        C  0.23709350  0.79960032  0.07741886     0.20100
C898        C  0.20609135  0.81588403  0.10574884     0.25200
C899        C  0.19968725  0.80720000  0.16307448    -0.22800
C900        C  0.22537315  0.78292130  0.19190832     0.20100
F901        F  0.21919806  0.77276171  0.24666950    -0.12800
F902        F  0.27619466  0.73940954  0.19499923    -0.15100
F903        F  0.18226169  0.84026080  0.07655831    -0.15100
F904        F  0.23989620  0.80663741  0.02101381    -0.12000
C905        C  0.21610118  0.75019650  0.52886171     0.25200
C906        C  0.26346150  0.72234538  0.03413217    -0.22900
C907        C  0.23597433  0.70022725  0.06368727     0.20100
C908        C  0.24028964  0.68994810  0.45734912     0.25200
C909        C  0.20194562  0.70174572  0.45634489    -0.22800
C910        C  0.19082799  0.73320184  0.49047794     0.20100
F911        F  0.15502530  0.74807362  0.48619180    -0.12800
F912        F  0.27968773  0.74917486  0.94124629    -0.15100
F913        F  0.25271293  0.66147710  0.42103833    -0.15100
F914        F  0.24051778  0.69184074  0.11950088    -0.12800
C915        C  0.20123874  0.51514321  0.47214560     0.25200
C916        C  0.20054030  0.55627420  0.46835088    -0.22900
C917        C  0.20562193  0.57049379  0.03640703     0.20100
C918        C  0.23948996  0.55674931  0.05978570     0.25200
C919        C  0.25954032  0.52480040  0.03475212    -0.22800
C920        C  0.22499950  0.49699128  0.51199157     0.20100
F921        F  0.22347182  0.45691702  0.51704019    -0.12800
F922        F  0.17747221  0.49278373  0.43969135    -0.15100
F923        F  0.25215105  0.57607927  0.10635882    -0.15100
F924        F  0.18560585  0.59816326  0.06537513    -0.12800
O925        O  0.16349046  0.58581320  0.90337731    -0.70100
O926        O  0.09813096  0.66550882  0.84441683    -0.70400
O927        O  0.16487888  0.66368828  0.90093885    -0.70200
O928        O  0.09757982  0.58430074  0.84638015    -0.70200
O929        O  0.06916922  0.58487426  0.92746745    -0.70200
O930        O  0.13366796  0.66712659  0.97953030    -0.70200
O931        O  0.06713739  0.66528834  0.92335339    -0.70100
O932        O  0.13445240  0.58980206  0.98403292    -0.70300
V933        V  0.13002732  0.62493807  0.87481058     1.35200
V934        V  0.10123469  0.62681918  0.95156168     1.35200
C935        C  0.16172374  0.57709098  0.95528396     0.79100
C936        C  0.07214181  0.67981936  0.87499454     0.79200
C937        C  0.16271319  0.67595295  0.95149666     0.79000
C938        C  0.07346696  0.56933511  0.87907130     0.79000
C939        C  0.01180131  0.53424975  0.85822288     0.03900
C940        C  0.05179498  0.53358576  0.86205306     0.03900
C941        C  0.07172480  0.49820292  0.84935394    -0.16600
C942        C  0.05279860  0.96347252  0.83144403     0.03900
C943        C  0.01277359  0.96464315  0.82533177     0.03900
C944        C  0.99287703  0.49975961  0.83960830    -0.16600
H945        H  0.96215153  0.50020175  0.83621441     0.05900
H946        H  0.10247629  0.49794794  0.85244085     0.05900
C947        C  0.05000161  0.71476471  0.85709254     0.03900
C948        C  0.01003123  0.71593533  0.86013216     0.03900
C949        C  0.99106080  0.75146945  0.84536286    -0.16600
C950        C  0.01114052  0.78547635  0.82800110     0.03900
C951        C  0.05135712  0.78397349  0.82562641     0.03900
C952        C  0.07001598  0.74859502  0.84038161    -0.16600
H953        H  0.10075172  0.74739890  0.83908005     0.05900
H954        H  0.96034427  0.75249359  0.84659363     0.05900
O955        O  0.07008555  0.91312956  0.76534116    -0.70100
O956        O  0.13788792  0.83833829  0.70238543    -0.70400
O957        O  0.07153735  0.83288975  0.75881548    -0.70200
O958        O  0.13544638  0.91575451  0.71104671    -0.70200
O959        O  0.16850368  0.91139032  0.78911652    -0.70200
O960        O  0.10080902  0.83192511  0.84019953    -0.70200
O961        O  0.16789408  0.83359939  0.78311450    -0.70100
O962        O  0.10197224  0.91350852  0.84441722    -0.70300
V963        V  0.10404894  0.87477965  0.73637372     1.35200
V964        V  0.13378286  0.87243108  0.81323854     1.35200
C965        C  0.07556895  0.92811651  0.81377769     0.79100
C966        C  0.16623489  0.82614009  0.73040692     0.79200
C967        C  0.07509876  0.81813918  0.80778296     0.79000
C968        C  0.16421475  0.92561749  0.74012059     0.79000
C969        C  0.78939294  0.74828365  0.57674700    -0.00800
C970        C  0.79020795  0.00230536  0.57332750    -0.00800
O971        O  0.63371993  0.58815973  0.66277692    -0.70100
O972        O  0.56756731  0.66418282  0.72940210    -0.70400
O973        O  0.63161680  0.66556692  0.66674767    -0.70200
O974        O  0.57033383  0.58312488  0.72530847    -0.70200
O975        O  0.60402295  0.58246624  0.80285032    -0.70200
O976        O  0.66531584  0.66452732  0.74417726    -0.70200
O977        O  0.60182270  0.66395403  0.80641551    -0.70100
O978        O  0.66725345  0.58668804  0.74070968    -0.70300
V979        V  0.60094618  0.62523976  0.69805005     1.35200
V980        V  0.63351475  0.62444586  0.77242830     1.35200
C981        C  0.66327210  0.57719420  0.68911730     0.79100
C982        C  0.57443274  0.67858413  0.77811690     0.79200
C983        C  0.66133052  0.67579578  0.69341053     0.79000
C984        C  0.57762993  0.56757794  0.77301878     0.79000
O985        O  0.60646752  0.91218361  0.81960636    -0.70100
O986        O  0.66777703  0.83351883  0.89429309    -0.70400
O987        O  0.60521795  0.83048264  0.82652755    -0.70200
O988        O  0.66975552  0.91133258  0.88511062    -0.70200
O989        O  0.63446466  0.91705911  0.95970064    -0.70200
O990        O  0.57084484  0.83497346  0.90173696    -0.70200
O991        O  0.63264330  0.83968408  0.96897899    -0.70100
O992        O  0.57226021  0.91542451  0.89509984    -0.70300
V993        V  0.63632037  0.87190370  0.85729500     1.35200
V994        V  0.60286011  0.87660517  0.92933463     1.35200
C995        C  0.57942283  0.92828783  0.84655222     0.79100
C996        C  0.66202510  0.82626434  0.94618818     0.79200
C997        C  0.57761065  0.81784866  0.85487395     0.79000
C998        C  0.66440875  0.92578276  0.93377387     0.79000
O999        O  0.46668505  0.83525925  0.82152576    -0.70100
O1000       O  0.40364228  0.91555840  0.88639796    -0.70400
O1001       O  0.46715210  0.91667404  0.82381139    -0.70200
O1002       O  0.40246442  0.83721970  0.88214807    -0.70200
O1003       O  0.43544105  0.83649068  0.96064887    -0.70200
O1004       O  0.50139169  0.91411173  0.90059145    -0.70200
O1005       O  0.43887316  0.91428558  0.96259514    -0.70100
O1006       O  0.49890759  0.83344122  0.90035769    -0.70300
V1007       V  0.43596337  0.87619268  0.85447802     1.35200
V1008       V  0.46835556  0.87458481  0.92903585     1.35200
C1009       C  0.49270707  0.81950947  0.85159266     0.79100
C1010       C  0.40935820  0.92604645  0.93742606     0.79200
C1011       C  0.49472038  0.92986995  0.85284136     0.79000
C1012       C  0.40651573  0.82562704  0.93261108     0.79000
C1013       C  0.27554885  0.99758223  0.59006761    -0.00800
O1014       O  0.42102871  0.65612704  0.68407649    -0.70100
O1015       O  0.49730659  0.58621432  0.73911178    -0.70400
O1016       O  0.42999609  0.57926052  0.68862574    -0.70200
O1017       O  0.49005194  0.66611074  0.73456934    -0.70200
O1018       O  0.46685127  0.66296406  0.81922796    -0.70200
O1019       O  0.39862657  0.58242927  0.76685566    -0.70200
O1020       O  0.46737134  0.58142198  0.81850434    -0.70100
O1021       O  0.39724209  0.66022970  0.76850833    -0.70300
V1022       V  0.45943749  0.62215900  0.71354092     1.35200
V1023       V  0.43350943  0.62183707  0.79237019     1.35200
C1024       C  0.39466458  0.66756861  0.71616448     0.79100
C1025       C  0.49347151  0.56929557  0.78629755     0.79200
C1026       C  0.40129424  0.56961096  0.71648025     0.79000
C1027       C  0.48912633  0.67940756  0.78464427     0.79000
C1028       C  0.28054522  0.75190187  0.58591172    -0.00800
C1029       C  0.55627357  0.53232153  0.79291395     0.03900
C1030       C  0.51663500  0.53385110  0.80089483     0.03900
C1031       C  0.49769592  0.49986281  0.82014576    -0.16600
C1032       C  0.51720804  0.96433856  0.83244464     0.03900
C1033       C  0.55706538  0.96270850  0.82522701     0.03900
C1034       C  0.57607327  0.49670081  0.80542428    -0.16600
H1035       H  0.60652411  0.49577474  0.80109101     0.05900
H1036       H  0.46730812  0.50101482  0.82544488     0.05900
C1037       C  0.55274409  0.71363168  0.79961107     0.03900
C1038       C  0.51255232  0.71438822  0.80108412     0.03900
C1039       C  0.49402125  0.74982991  0.81683808    -0.16600
C1040       C  0.51430775  0.78418378  0.83263666     0.03900
C1041       C  0.55449886  0.78308094  0.83454999     0.03900
C1042       C  0.57306410  0.74785859  0.81699453    -0.16600
H1043       H  0.60381519  0.74706809  0.81676599     0.05900
H1044       H  0.46326961  0.75061194  0.81723274     0.05900
O1045       O  0.89815152  0.66412971  0.90822805    -0.70100
O1046       O  0.96188135  0.58314387  0.84772357    -0.70400
O1047       O  0.89729301  0.58655655  0.90809077    -0.70200
O1048       O  0.96264274  0.66506928  0.84799561    -0.70200
O1049       O  0.99336150  0.66642147  0.92817042    -0.70200
O1050       O  0.93184214  0.58385003  0.98458742    -0.70200
O1051       O  0.99613172  0.58544372  0.92455628    -0.70100
O1052       O  0.92928664  0.66087189  0.98817310    -0.70300
V1053       V  0.93107746  0.62467854  0.87894674     1.35200
V1054       V  0.96255138  0.62419287  0.95429234     1.35200
C1055       C  0.90054889  0.67235890  0.96047868     0.79100
C1056       C  0.98927641  0.56945274  0.87699430     0.79200
C1057       C  0.90141891  0.57510445  0.95879888     0.79000
C1058       C  0.98786851  0.68085905  0.87930155     0.79000
O1059       O  0.99712893  0.83414693  0.75892043    -0.70100
O1060       O  0.93652405  0.91218045  0.68910183    -0.70400
O1061       O  0.99799390  0.91441891  0.75616458    -0.70200
O1062       O  0.93434089  0.83438939  0.69339903    -0.70200
O1063       O  0.89892735  0.83812298  0.76810534    -0.70200
O1064       O  0.96327534  0.91677074  0.83134542    -0.70200
O1065       O  0.90109286  0.91613841  0.76364617    -0.70100
O1066       O  0.96199435  0.83552119  0.83374485    -0.70300
V1067       V  0.96614054  0.87380991  0.72633247     1.35200
V1068       V  0.93233827  0.87659001  0.79825506     1.35200
C1069       C  0.98947227  0.82028370  0.80683018     0.79100
C1070       C  0.90709543  0.92516847  0.71245228     0.79200
C1071       C  0.99080936  0.93012917  0.80373151     0.79000
C1072       C  0.90426882  0.82513507  0.71867740     0.79000
C1073       C  0.32772414  0.74694178  0.66822444     0.25200
C1074       C  0.30340865  0.72623913  0.62914663    -0.22900
C1075       C  0.30522705  0.68454955  0.62898130     0.20100
C1076       C  0.33455894  0.66522795  0.65885321     0.25200
C1077       C  0.36078206  0.68683881  0.69214188    -0.22800
C1078       C  0.35561126  0.72729512  0.69945142     0.20100
F1079       F  0.37972147  0.74838098  0.73311753    -0.12800
F1080       F  0.32743809  0.78712987  0.67135930    -0.15100
F1081       F  0.33814997  0.62549733  0.65350954    -0.15100
F1082       F  0.28054382  0.66261852  0.59791604    -0.12800
C1083       C  0.30183408  0.53549200  0.68042254     0.25200
C1084       C  0.30496311  0.52447837  0.62231150    -0.22900
C1085       C  0.33903271  0.53530578  0.59578962     0.20100
C1086       C  0.37118591  0.54479203  0.62741766     0.25200
C1087       C  0.36936960  0.54983314  0.68664156    -0.22800
C1088       C  0.33387197  0.54622960  0.71249119     0.20100
F1089       F  0.32953447  0.55493186  0.76831421    -0.12800
F1090       F  0.26775477  0.53759116  0.70637476    -0.15100
F1091       F  0.40362956  0.55153617  0.59870020    -0.15100
F1092       F  0.34132163  0.53838194  0.53880217    -0.12800
C1093       C  0.34845048  0.82857290  0.98886333     0.25200
C1094       C  0.37557943  0.80541482  0.96122420    -0.22900
C1095       C  0.37417258  0.76436484  0.96548920     0.20100
C1096       C  0.34891462  0.75613020  0.54338665     0.25200
C1097       C  0.31168847  0.77344882  0.55019633    -0.22800
C1098       C  0.32276063  0.81184904  0.02596691     0.20100
F1099       F  0.30307760  0.83702353  0.05963705    -0.12800
F1100       F  0.34684370  0.86795206  0.97985238    -0.15100
F1101       F  0.35916445  0.71995020  0.56318197    -0.15100
F1102       F  0.39963043  0.74127714  0.93766965    -0.12800
C1103       C  0.37371281  0.93548297  0.02610265     0.25200
C1104       C  0.38033276  0.94687964  0.96991225    -0.22900
C1105       C  0.35697338  0.97505138  0.94458550     0.20100
C1106       C  0.32836894  0.99294177  0.97578462     0.25200
C1107       C  0.30045422  0.96739146  0.55271349    -0.22800
C1108       C  0.32500619  0.93868644  0.57774715     0.20100
F1109       F  0.31500219  0.91795907  0.62365269    -0.12800
F1110       F  0.38251477  0.90159432  0.58015993    -0.15100
F1111       F  0.31401123  0.52715832  0.95379592    -0.15100
F1112       F  0.36367735  0.98756908  0.89101306    -0.12800
C1113       C  0.74927277  0.94011327  0.55252424     0.25200
C1114       C  0.76258754  0.97760723  0.53559508    -0.22900
C1115       C  0.71864363  0.00303094  0.01592439     0.20100
C1116       C  0.69102487  0.98589794  0.98093192     0.25200
C1117       C  0.69502169  0.94666197  0.96344683    -0.22800
C1118       C  0.72686889  0.92476002  0.98086406     0.20100
F1119       F  0.73237652  0.88738678  0.96096477    -0.12800
F1120       F  0.76685076  0.91884707  0.59381414    -0.15100
F1121       F  0.66080240  0.00785821  0.96322573    -0.15100
F1122       F  0.71542642  0.54241670  0.02743929    -0.12800
C1123       C  0.70864340  0.52171061  0.67756386     0.25200
C1124       C  0.69449198  0.55788792  0.65913644    -0.22900
C1125       C  0.71302243  0.57801614  0.61568921     0.20100
C1126       C  0.74639409  0.56301023  0.59215231     0.25200
C1127       C  0.76062232  0.52562518  0.60881876    -0.22800
C1128       C  0.74021561  0.50507724  0.65175913     0.20100
F1129       F  0.75094612  0.46863837  0.67001489    -0.12800
F1130       F  0.69101689  0.50167878  0.71940416    -0.15100
F1131       F  0.76338757  0.58451971  0.55143329    -0.15100
F1132       F  0.69859899  0.61238977  0.59567199    -0.12800
C1133       C  0.84138629  0.94918614  0.59060705     0.25200
C1134       C  0.81790994  0.97926490  0.61335193    -0.22900
C1135       C  0.82717381  0.99321500  0.66933399     0.20100
C1136       C  0.85599931  0.97567313  0.70148153     0.25200
C1137       C  0.87858626  0.94610186  0.67798942    -0.22800
C1138       C  0.87168885  0.93363573  0.62186864     0.20100
F1139       F  0.89323920  0.90470869  0.59788514    -0.12800
F1140       F  0.83548699  0.93493755  0.53742450    -0.15100
F1141       F  0.86296824  0.98900818  0.75501261    -0.15100
F1142       F  0.80983842  0.52498167  0.69346067    -0.12800
C1143       C  0.80494163  0.53181345  0.98829038     0.25200
C1144       C  0.81873328  0.52593006  0.53635069    -0.22900
C1145       C  0.84162453  0.55552016  0.56206965     0.20100
C1146       C  0.87442393  0.56923220  0.53589512     0.25200
C1147       C  0.86933980  0.55712294  0.98941777    -0.22800
C1148       C  0.83661732  0.54567662  0.95984983     0.20100
F1149       F  0.83554230  0.54609190  0.90224217    -0.12800
F1150       F  0.77727223  0.01779544  0.95363568    -0.15100
F1151       F  0.89556591  0.59718467  0.56300598    -0.15100
F1152       F  0.83294649  0.57069667  0.61363295    -0.12800
C1153       C  0.69624214  0.69389205  0.60494089     0.25200
C1154       C  0.69338887  0.69510590  0.66427726    -0.22900
C1155       C  0.72482840  0.70790455  0.69593080     0.20100
C1156       C  0.75790761  0.72022440  0.66962348     0.25200
C1157       C  0.76134989  0.72008468  0.60912071    -0.22800
C1158       C  0.73022824  0.70352112  0.57824339     0.20100
F1159       F  0.73098655  0.70084744  0.52081473    -0.12800
F1160       F  0.66633558  0.68230299  0.57218742    -0.15100
F1161       F  0.78474533  0.73460173  0.70546599    -0.15100
F1162       F  0.72331503  0.71002021  0.75340491    -0.12800
C1163       C  0.73180630  0.75070987  0.99883112     0.25200
C1164       C  0.76177260  0.77621480  0.54228507    -0.22900
C1165       C  0.73090058  0.79390998  0.57148472     0.20100
C1166       C  0.70371412  0.82422523  0.03166402     0.25200
C1167       C  0.69031375  0.80609247  0.98153886    -0.22800
C1168       C  0.70443469  0.76940450  0.96550912     0.20100
F1169       F  0.69076101  0.75093241  0.91827767    -0.12800
F1170       F  0.74273383  0.71417246  0.98116881    -0.15100
F1171       F  0.68901701  0.85947911  0.04910898    -0.15100
F1172       F  0.73048763  0.79541531  0.62902336    -0.12800
C1173       C  0.87459868  0.76426563  0.67845114     0.25200
C1174       C  0.87357594  0.80489844  0.68837050    -0.22900
C1175       C  0.84334192  0.82757684  0.66690870     0.20100
C1176       C  0.81613515  0.81081870  0.63093995     0.25200
C1177       C  0.81628724  0.76947762  0.62011934    -0.22800
C1178       C  0.84584208  0.74650275  0.64638309     0.20100
F1179       F  0.84695233  0.70644397  0.64029185    -0.12800
F1180       F  0.90323676  0.74173196  0.70015425    -0.15100
F1181       F  0.79157335  0.83609955  0.60521264    -0.15100
F1182       F  0.84076111  0.86670927  0.67944942    -0.12800
C1183       C  0.84750201  0.75220451  0.51232183     0.25200
C1184       C  0.81819261  0.72822322  0.53562438    -0.22900
C1185       C  0.82463242  0.68936790  0.06880937     0.20100
C1186       C  0.85653081  0.67432424  0.04155853     0.25200
C1187       C  0.86858771  0.69040046  0.99010384    -0.22800
C1188       C  0.84808036  0.72116991  0.96552785     0.20100
F1189       F  0.85820404  0.73591781  0.91446005    -0.12800
F1190       F  0.84696737  0.79222313  0.51888455    -0.15100
F1191       F  0.87550140  0.64352267  0.06547742    -0.15100
F1192       F  0.81387094  0.67162962  0.11737421    -0.12800
C1193       C  0.23197273  0.94264599  0.72157763     0.25200
C1194       C  0.19317171  0.95014654  0.71384356    -0.22900
C1195       C  0.18168581  0.97748397  0.67361324     0.20100
C1196       C  0.20763153  0.99393190  0.63732414     0.25200
C1197       C  0.24655505  0.98032925  0.63501776    -0.22800
C1198       C  0.25837461  0.95774629  0.68330215     0.20100
F1199       F  0.29520855  0.95568843  0.69992780    -0.12800
F1200       F  0.24433368  0.91905838  0.76454311    -0.15100
F1201       F  0.19387084  0.02594130  0.60909002    -0.15100
F1202       F  0.14481596  0.98934096  0.67024860    -0.12800
C1203       C  0.25281930  0.81523979  0.63770346     0.25200
C1204       C  0.25442837  0.77391898  0.62893794    -0.22900
C1205       C  0.22831786  0.75015197  0.65985749     0.20100
C1206       C  0.20141681  0.76691181  0.69568112     0.25200
C1207       C  0.19823242  0.80782194  0.70015414    -0.22800
C1208       C  0.22361928  0.83177860  0.67021887     0.20100
F1209       F  0.21873034  0.87144301  0.66959682    -0.12800
F1210       F  0.27815204  0.83995908  0.61404803    -0.15100
F1211       F  0.17673122  0.74313124  0.72292196    -0.15100
F1212       F  0.22742970  0.71021263  0.65275883    -0.12000
C1213       C  0.25677248  0.72754330  0.97460542     0.25200
C1214       C  0.25310746  0.73346061  0.53956752    -0.22900
C1215       C  0.26546304  0.70511120  0.49894494     0.20100
C1216       C  0.20196120  0.68907381  0.03781638     0.25200
C1217       C  0.19571457  0.69478421  0.97961841    -0.22800
C1218       C  0.22404913  0.71287664  0.94804672     0.20100
F1219       F  0.21926695  0.71840175  0.89140115    -0.12800
F1220       F  0.20370329  0.78437173  0.55304501    -0.15100
F1221       F  0.17493596  0.67266839  0.07049933    -0.15100
F1222       F  0.30177240  0.69179200  0.49908717    -0.12800
C1223       C  0.21307037  0.52763016  0.95551633     0.25200
C1224       C  0.19298325  0.55689266  0.98348530    -0.22900
C1225       C  0.22389210  0.57908252  0.50405813     0.20100
C1226       C  0.24939350  0.56138912  0.54165403     0.25200
C1227       C  0.25058274  0.51980088  0.54656416    -0.22800
C1228       C  0.24430041  0.51020165  0.98155175     0.20100
F1229       F  0.25874372  0.47871991  0.95284576    -0.12800
F1230       F  0.20130455  0.51431279  0.90376867    -0.15100
F1231       F  0.26949920  0.58539023  0.57679784    -0.15100
F1232       F  0.21961845  0.61888614  0.50605736    -0.12800
loop_ 
_geom_bond_atom_site_label_1 
_geom_bond_atom_site_label_2 
_geom_bond_distance 
_geom_bond_site_symmetry_2 
_ccdc_geom_bond_type 
O1            V9   1.905       .  S
O1           C11   1.265       .  A
O2            V9   1.928       .  S
O2           C12   1.272       .  A
O3            V9   1.907       .  S
O3           C13   1.263       .  A
O4            V9   1.916       .  S
O4           C14   1.268       .  A
O5           V10   1.905       .  S
O5           C14   1.265       .  A
O6           V10   1.896       .  S
O6           C13   1.266       .  A
O7           V10   1.893       .  S
O7           C12   1.260       .  A
O8           V10   1.876       .  S
O8           C11   1.257       .  A
V9           V10   2.086       .  T
C11         C300   1.454       .  S
C12          C23   1.495       .  S
C13         C293   1.477       .  S
C14          C16   1.496       .  S
C15         C132   1.502   1_455  S
C15          C16   1.416       .  A
C15          C20   1.422       .  A
C16          C17   1.417   1_545  A
C17         C634   1.418       .  A
C17          H22   1.086       .  S
C18          C41   1.495       .  S
C18          C19   1.422       .  A
C18         C633   1.418       .  A
C19         C147   1.509   1_455  S
C19         C636   1.421       .  A
C20         C635   1.421   1_545  A
C20          H21   1.085   1_455  S
C23          C24   1.425       .  A
C23          C28   1.417       .  A
C24         C134   1.507   1_455  S
C24          C25   1.417   1_455  A
C25          C26   1.419   1_655  A
C25          H30   1.086       .  S
C26         C145   1.493   1_455  S
C26          C27   1.417       .  A
C27          C43   1.501       .  S
C27          C28   1.415       .  A
C28          H29   1.086       .  S
O31          V39   1.898       .  S
O31          C41   1.262       .  A
O32          V39   1.886       .  S
O32          C42   1.260       .  A
O33          V39   1.914       .  S
O33          C43   1.268       .  A
O34          V39   1.897       .  S
O34          C44   1.267       .  A
O35          V40   1.903       .  S
O35          C44   1.264       .  A
O36          V40   1.918       .  S
O36          C43   1.268       .  A
O37          V40   1.900       .  S
O37          C42   1.267       .  A
O38          V40   1.923       .  S
O38          C41   1.270       .  A
V39          V40   2.083       .  T
C42         C283   1.475       .  S
C44         C270   1.490       .  S
C45         C233   1.558       .  S
C45         C240   1.557       .  S
C45         C253   1.568       .  S
C45         C260   1.555       .  S
C46         C190   1.562       .  S
C46         C210   1.579       .  S
C46         C819   1.575       .  S
C46         C836   1.586       .  S
O47          V55   1.904       .  S
O47          C57   1.265       .  A
O48          V55   1.915       .  S
O48          C58   1.269       .  A
O49          V55   1.880       .  S
O49          C59   1.258       .  A
O50          V55   1.887       .  S
O50          C60   1.260       .  A
O51          V56   1.926       .  S
O51          C60   1.271       .  A
O52          V56   1.906       .  S
O52          C59   1.267       .  A
O53          V56   1.917       .  S
O53          C58   1.267       .  A
O54          V56   1.902       .  S
O54          C57   1.263       .  A
V55          V56   2.085       .  T
C57         C200   1.474       .  S
C58         C113   1.505       .  S
C59         C230   1.466       .  S
C60         C105   1.493       .  S
O61          V69   1.910       .  S
O61          C71   1.267       .  A
O62          V69   1.899       .  S
O62          C72   1.266       .  A
O63          V69   1.915       .  S
O63          C73   1.267       .  A
O64          V69   1.897       .  S
O64          C74   1.263       .  A
O65          V70   1.893       .  S
O65          C74   1.263       .  A
O66          V70   1.901       .  S
O66          C73   1.265       .  A
O67          V70   1.880       .  S
O67          C72   1.260       .  A
O68          V70   1.893       .  S
O68          C71   1.262       .  A
V69          V70   2.084       .  T
C71         C109   1.480       .  S
C72         C243   1.476       .  S
C73         C117   1.494       .  S
C74         C193   1.465       .  S
O75          V83   1.929       .  S
O75          C85   1.271       .  A
O76          V83   1.896       .  S
O76          C86   1.268       .  A
O77          V83   1.905       .  S
O77          C87   1.264       .  A
O78          V83   1.886       .  S
O78          C88   1.258       .  A
O79          V84   1.892       .  S
O79          C88   1.267       .  A
O80          V84   1.915       .  S
O80          C87   1.269       .  A
O81          V84   1.889       .  S
O81          C86   1.259       .  A
O82          V84   1.898       .  S
O82          C85   1.263       .  A
V83          V84   2.084       .  T
C85         C116   1.501       .  S
C86         C180   1.479       .  S
C87         C108   1.492       .  S
C88         C170   1.462       .  S
C89         C183   1.563       .  S
C89         C273   1.596       .  S
C89         C776   1.599       .  S
C89         C919   1.570       .  S
O90          V98   1.886       .  S
O90         C100   1.260       .  A
O91          V98   1.891       .  S
O91         C101   1.262       .  A
O92          V98   1.881       .  S
O92         C102   1.261       .  A
O93          V98   1.891       .  S
O93         C103   1.261       .  A
O94          V99   1.922       .  S
O94         C103   1.270       .  A
O95          V99   1.911       .  S
O95         C102   1.267       .  A
O96          V99   1.920       .  S
O96         C101   1.268       .  A
O97          V99   1.899       .  S
O97         C100   1.263       .  A
V98          V99   2.083       .  T
C100        C153   1.457       .  S
C101        C106   1.494       .  S
C102        C163   1.489       .  S
C103        C114   1.490       .  S
C104        C150   1.544       .  S
C104        C173   1.557       .  S
C104        C280   1.570       .  S
C104        C290   1.569       .  S
C105        C106   1.423       .  A
C105        C110   1.411       .  A
C106        C107   1.415       .  A
C107        C724   1.413   1_545  A
C107        H112   1.081       .  S
C108        C109   1.411       .  A
C108        C723   1.413       .  A
C109        C726   1.412       .  A
C110        C725   1.412   1_545  A
C110        H111   1.081       .  S
C113        C114   1.419       .  A
C113        C118   1.414       .  A
C114        C115   1.419       .  A
C115        C116   1.417       .  A
C115        H120   1.085       .  S
C116        C117   1.420       .  A
C117        C118   1.417       .  A
C118        H119   1.085       .  S
O121        V129   1.892       .  S
O121        C131   1.260       .  A
O122        V129   1.910       .  S
O122        C132   1.264       .  A
O123        V129   1.906       .  S
O123        C133   1.268       .  A
O124        V129   1.931       .  S
O124        C134   1.272       .  A
O125        V130   1.906   1_455  S
O125        C134   1.265   1_455  A
O126        V130   1.891       .  S
O126        C133   1.260       .  A
O127        V130   1.919   1_455  S
O127        C132   1.271   1_455  A
O128        V130   1.909       .  S
O128        C131   1.267       .  A
V129        V130   2.085       .  T
C131        C263   1.471       .  S
C133        C223   1.477       .  S
O135        V143   1.903   1_455  S
O135        C145   1.265   1_455  A
O136        V143   1.891       .  S
O136        C146   1.262       .  A
O137        V143   1.920   1_455  S
O137        C147   1.270   1_455  A
O138        V143   1.903       .  S
O138        C148   1.266       .  A
O139        V144   1.903       .  S
O139        C148   1.264       .  A
O140        V144   1.921       .  S
O140        C147   1.268       .  A
O141        V144   1.897       .  S
O141        C146   1.266       .  A
O142        V144   1.916       .  S
O142        C145   1.268       .  A
V143        V144   2.084       .  T
C146        C213   1.484       .  S
C148        C250   1.479       .  S
C149        C150   1.430       .  A
C149        C154   1.394       .  A
C149        F156   1.358       .  S
C150        C151   1.409       .  A
C151        C152   1.388       .  A
C151        F158   1.356       .  S
C152        C153   1.400       .  A
C152        F157   1.346       .  S
C153        C154   1.389       .  A
C154        F155   1.358       .  S
C159        C160   1.428       .  A
C159        C164   1.407       .  A
C159        F166   1.358       .  S
C160        C161   1.423       .  A
C160        C705   1.599       .  S
C161        C162   1.389       .  A
C161        F168   1.350       .  S
C162        C163   1.405       .  A
C162        F167   1.359       .  S
C163        C164   1.406       .  A
C164        F165   1.357       .  S
C169        C170   1.409       .  A
C169        C174   1.409       .  A
C169        F176   1.358       .  S
C170        C171   1.378       .  A
C171        C480   1.380       .  A
C171        F178   1.360       .  S
C172        C173   1.434   1_556  A
C172        C479   1.398       .  A
C172        F177   1.357       .  S
C173        C482   1.412       .  A
C174        C481   1.417       .  A
C174        F175   1.356       .  S
C179        C180   1.407       .  A
C179        C492   1.407       .  A
C179        F494   1.359       .  S
C180        C181   1.385       .  A
C181        C182   1.388       .  A
C181        F188   1.360       .  S
C182        C491   1.454       .  A
C182        F803   1.355       .  S
C183        C184   1.412       .  A
C183        C490   1.440   1_554  A
C184        C487   1.390       .  A
C184        F185   1.352       .  S
F186        C487   1.359       .  S
F187        C798   1.355   1_545  S
C189        C190   1.418       .  A
C189        C502   1.395   1_554  A
C189        F196   1.353       .  S
C190        C499   1.432       .  A
C191        C192   1.394       .  A
C191        C498   1.432       .  A
C191        F814   1.356       .  S
C192        C193   1.391       .  A
C192        F197   1.359       .  S
C193        C194   1.401       .  A
C194        C497   1.395       .  A
C194        F195   1.352       .  S
F198        C807   1.356   1_545  S
C199        C200   1.392       .  A
C199        C204   1.399   1_545  A
C199        F206   1.358   1_545  S
C200        C201   1.403       .  A
C201        C202   1.402       .  A
C201        F208   1.356       .  S
C202        C203   1.418       .  A
C202        F207   1.352       .  S
C203        C204   1.436   1_545  A
C203        C662   1.575       .  S
C204        F205   1.359       .  S
C209        C210   1.427       .  A
C209        C214   1.398       .  A
C209        F216   1.359       .  S
C210        C211   1.431       .  A
C211        C212   1.395       .  A
C211        F834   1.353       .  S
C212        C213   1.400       .  A
C212        F217   1.358       .  S
C213        C214   1.406       .  A
C214        F215   1.358       .  S
F218        C827   1.353       .  S
C219        C224   1.395       .  A
C219        C528   1.434       .  A
C219        F842   1.356   1_545  S
C220        C221   1.427       .  A
C220        C527   1.438   1_554  A
C220        C662   1.586       .  S
C221        C222   1.400       .  A
C221        F228   1.358       .  S
C222        C531   1.405   1_554  A
C222        F227   1.358       .  S
C223        C224   1.392       .  A
C223        C530   1.407       .  A
C224        F225   1.358       .  S
F226        C835   1.356       .  S
C229        C230   1.404       .  A
C229        C234   1.396       .  A
C229        F236   1.359       .  S
C230        C231   1.390       .  A
C231        C232   1.394       .  A
C231        F238   1.358       .  S
C232        C233   1.431       .  A
C232        F237   1.355       .  S
C233        C234   1.417       .  A
C234        F235   1.354       .  S
C239        C244   1.396       .  A
C239        C548   1.434       .  A
C239        F246   1.354       .  S
C240        C241   1.413       .  A
C240        C547   1.435   1_554  A
C241        C550   1.398       .  A
C241        F248   1.355       .  S
C242        C243   1.404       .  A
C242        C549   1.392       .  A
C242        F247   1.359       .  S
C243        C244   1.396       .  A
C244        F245   1.359       .  S
C249        C250   1.395       .  A
C249        C254   1.400       .  A
C249        F256   1.359       .  S
C250        C251   1.404       .  A
C251        C252   1.400       .  A
C251        F258   1.355       .  S
C252        C253   1.417       .  A
C252        F257   1.354       .  S
C253        C254   1.434       .  A
C254        F255   1.356       .  S
C259        C260   1.435   1_556  A
C259        C572   1.389       .  A
C259        F266   1.356       .  S
C260        C569   1.413       .  A
C261        C262   1.399       .  A
C261        C568   1.412       .  A
C261        F268   1.353       .  S
C262        C263   1.405       .  A
C262        F267   1.353       .  S
C263        C264   1.390       .  A
C264        C567   1.396       .  A
C264        F265   1.358       .  S
C269        C270   1.408       .  A
C269        C274   1.408       .  A
C269        F276   1.358       .  S
C270        C271   1.404       .  A
C271        C272   1.394       .  A
C271        F278   1.358       .  S
C272        C273   1.418       .  A
C272        F277   1.347       .  S
C273        C274   1.424       .  A
C274        F275   1.356       .  S
C279        C280   1.438       .  A
C279        C284   1.391       .  A
C279        F286   1.357       .  S
C280        C281   1.418       .  A
C281        C282   1.397       .  A
C281        F288   1.358       .  S
C282        C283   1.407       .  A
C282        F287   1.357       .  S
C283        C284   1.392       .  A
C284        F285   1.359       .  S
C289        C294   1.388       .  A
C289        C598   1.439       .  A
C289        F604   1.356       .  S
C290        C291   1.420       .  A
C290        C597   1.433   1_554  A
C291        C600   1.393       .  A
C291        F298   1.356       .  S
C292        C293   1.408       .  A
C292        C599   1.412       .  A
C292        F297   1.358       .  S
C293        C294   1.386       .  A
C294        F295   1.359       .  S
F296        C597   1.355       .  S
C299        C300   1.391       .  A
C299        C304   1.394   1_545  A
C299        F306   1.358   1_545  S
C300        C609   1.402       .  A
C301        C302   1.388       .  A
C301        C608   1.397   1_554  A
C301        F308   1.354       .  S
C302        C303   1.416       .  A
C302        F307   1.348       .  S
C303        C612   1.445   1_554  A
C303        C705   1.570       .  S
C304        C611   1.434   1_565  A
C304        F305   1.359       .  S
O309        V317   1.887       .  S
O309        C319   1.263       .  A
O310        V317   1.904       .  S
O310        C320   1.265       .  A
O311        V317   1.896       .  S
O311        C321   1.263       .  A
O312        V317   1.906       .  S
O312        C322   1.265       .  A
O313        V318   1.898       .  S
O313        C322   1.264       .  A
O314        V318   1.894       .  S
O314        C321   1.265       .  A
O315        V318   1.883       .  S
O315        C320   1.259       .  A
O316        V318   1.868       .  S
O316        C319   1.256       .  A
V317        V318   2.088       .  T
C319        C608   1.450       .  S
C320        C331   1.471       .  S
C321        C601   1.478       .  S
C322        C324   1.483       .  S
C323        C440   1.493   1_455  S
C323        C324   1.413       .  A
C323        C328   1.411   1_445  A
C324        C325   1.414   1_545  A
C325        C942   1.412       .  A
C325        H330   1.087       .  S
C326        C349   1.494       .  S
C326        C941   1.412       .  A
C326        C327   1.418       .  A
C327        C455   1.487   1_455  S
C327        C944   1.415   1_455  A
C328        C943   1.415   1_655  A
C328        H329   1.086   1_565  S
C331        C332   1.413       .  A
C331        C336   1.407       .  A
C332        C442   1.498   1_455  S
C332        C333   1.413   1_455  A
C333        C334   1.417   1_655  A
C333        H338   1.085       .  S
C334        C453   1.483   1_455  S
C334        C335   1.421       .  A
C335        C351   1.495       .  S
C335        C336   1.403       .  A
C336        H337   1.086       .  S
O339        V347   1.889       .  S
O339        C349   1.260       .  A
O340        V347   1.891       .  S
O340        C350   1.260       .  A
O341        V347   1.907       .  S
O341        C351   1.265       .  A
O342        V347   1.881       .  S
O342        C352   1.263       .  A
O343        V348   1.897       .  S
O343        C352   1.261       .  A
O344        V348   1.917       .  S
O344        C351   1.268       .  A
O345        V348   1.914       .  S
O345        C350   1.268       .  A
O346        V348   1.927       .  S
O346        C349   1.271       .  A
V347        V348   2.086       .  T
C350        C591   1.474       .  S
C352        C578   1.465       .  S
C353        C541   1.583       .  S
C353        C548   1.574       .  S
C353        C561   1.561       .  S
C353        C568   1.562       .  S
C354        C498   1.555       .  S
C354       C1127   1.554       .  S
C354        C518   1.558       .  S
C354       C1144   1.565       .  S
O355        V363   1.894       .  S
O355        C365   1.262       .  A
O356        V363   1.911       .  S
O356        C366   1.267       .  A
O357        V363   1.902       .  S
O357        C367   1.265       .  A
O358        V363   1.909       .  S
O358        C368   1.267       .  A
O359        V364   1.911       .  S
O359        C368   1.265       .  A
O360        V364   1.892       .  S
O360        C367   1.265       .  A
O361        V364   1.914       .  S
O361        C366   1.267       .  A
O362        V364   1.895       .  S
O362        C365   1.263       .  A
V363        V364   2.086       .  T
C365        C508   1.464       .  S
C366        C421   1.494       .  S
C367        C538   1.487       .  S
C368        C413   1.493       .  S
O369        V377   1.928       .  S
O369        C379   1.271       .  A
O370        V377   1.908       .  S
O370        C380   1.269       .  A
O371        V377   1.916       .  S
O371        C381   1.266       .  A
O372        V377   1.893       .  S
O372        C382   1.261       .  A
O373        V378   1.900       .  S
O373        C382   1.264       .  A
O374        V378   1.914       .  S
O374        C381   1.269       .  A
O375        V378   1.872       .  S
O375        C380   1.255       .  A
O376        V378   1.872       .  S
O376        C379   1.256       .  A
V377        V378   2.086       .  T
C379        C417   1.486       .  S
C380        C551   1.460       .  S
C381        C425   1.506       .  S
C382        C501   1.462       .  S
O383        V391   1.918       .  S
O383        C393   1.269       .  A
O384        V391   1.903       .  S
O384        C394   1.267       .  A
O385        V391   1.910       .  S
O385        C395   1.265       .  A
O386        V391   1.897       .  S
O386        C396   1.261       .  A
O387        V392   1.899       .  S
O387        C396   1.265       .  A
O388        V392   1.907       .  S
O388        C395   1.267       .  A
O389        V392   1.869       .  S
O389        C394   1.256       .  A
O390        V392   1.880       .  S
O390        C393   1.258       .  A
V391        V392   2.087       .  T
C393        C424   1.481       .  S
C394        C488   1.461       .  S
C395        C416   1.497       .  S
C396        C478   1.464       .  S
C397       C1084   1.570       .  S
C397        C491   1.608       .  S
C397        C581   1.597       .  S
C397       C1227   1.540       .  S
O398        V406   1.897       .  S
O398        C408   1.264       .  A
O399        V406   1.894       .  S
O399        C409   1.263       .  A
O400        V406   1.875       .  S
O400        C410   1.260       .  A
O401        V406   1.900       .  S
O401        C411   1.262       .  A
O402        V407   1.924       .  S
O402        C411   1.272       .  A
O403        V407   1.908       .  S
O403        C410   1.267       .  A
O404        V407   1.907       .  S
O404        C409   1.266       .  A
O405        V407   1.898       .  S
O405        C408   1.263       .  A
V406        V407   2.083       .  T
C408        C461   1.467       .  S
C409        C414   1.484       .  S
C410        C471   1.481       .  S
C411        C422   1.492       .  S
C412        C458   1.556       .  S
C412        C481   1.577       .  S
C412        C588   1.561       .  S
C412        C598   1.579       .  S
C413        C414   1.414       .  A
C413        C418   1.417   1_545  A
C414        C415   1.411   1_545  A
C415       C1032   1.408       .  A
C415        H420   1.081   1_565  S
C416       C1031   1.408       .  A
C416        C417   1.419       .  A
C417       C1034   1.417       .  A
C418       C1033   1.417       .  A
C418        H419   1.081       .  S
C421        C422   1.419       .  A
C421        C426   1.419       .  A
C422        C423   1.410       .  A
C423        C424   1.412       .  A
C423        H428   1.085       .  S
C424        C425   1.419       .  A
C425        C426   1.416       .  A
C426        H427   1.085       .  S
O429        V437   1.894       .  S
O429        C439   1.264       .  A
O430        V437   1.918       .  S
O430        C440   1.267       .  A
O431        V437   1.897       .  S
O431        C441   1.266       .  A
O432        V437   1.918       .  S
O432        C442   1.268       .  A
O433        V438   1.907       .  S
O433        C442   1.266       .  A
O434        V438   1.894       .  S
O434        C441   1.263       .  A
O435        V438   1.896       .  S
O435        C440   1.264       .  A
O436        V438   1.882       .  S
O436        C439   1.260       .  A
V437        V438   2.085       .  T
C439        C571   1.462       .  S
C441        C531   1.485       .  S
O443        V451   1.884       .  S
O443        C453   1.259       .  A
O444        V451   1.874       .  S
O444        C454   1.257       .  A
O445        V451   1.904       .  S
O445        C455   1.266       .  A
O446        V451   1.902       .  S
O446        C456   1.265       .  A
O447        V452   1.889       .  S
O447        C456   1.259       .  A
O448        V452   1.904       .  S
O448        C455   1.263       .  A
O449        V452   1.906       .  S
O449        C454   1.268       .  A
O450        V452   1.921       .  S
O450        C453   1.270       .  A
V451        V452   2.087       .  T
C454        C521   1.466       .  S
C456        C558   1.461       .  S
C457        C458   1.434       .  A
C457        C462   1.389       .  A
C457        F464   1.358       .  S
C458        C459   1.408       .  A
C459        C460   1.404       .  A
C459        F466   1.353       .  S
C460        C461   1.410       .  A
C460        F465   1.351       .  S
C461        C462   1.386       .  A
C462        F463   1.359       .  S
C467        C468   1.424       .  A
C467        C472   1.401       .  A
C467        F474   1.357       .  S
C468        C469   1.413       .  A
C468       C1013   1.570   1_545  S
C469        C470   1.388       .  A
C469        F476   1.353       .  S
C470        C471   1.409       .  A
C470        F475   1.358       .  S
C471        C472   1.406       .  A
C472        F473   1.358       .  S
C477        C478   1.397       .  A
C477        C482   1.392   1_556  A
C477        F484   1.347       .  S
C478        C479   1.390       .  A
C479        F486   1.358       .  S
C480        C481   1.445       .  A
C480        F485   1.355       .  S
C482        F483   1.354       .  S
C487        C488   1.405   1_554  A
C488        C489   1.387       .  A
C489        C490   1.389       .  A
C489        F496   1.359       .  S
C490       F1111   1.360       .  S
C491        C492   1.421       .  A
C492        F493   1.344       .  S
F495       C1106   1.360   1_545  S
C497        C498   1.414       .  A
C497        F504   1.355       .  S
C499        C500   1.396   1_554  A
C499       F1122   1.359       .  S
C500        C501   1.391       .  A
C500        F505   1.358       .  S
C501        C502   1.400       .  A
C502        F503   1.357       .  S
F506       C1115   1.359       .  S
C507        C508   1.386       .  A
C507        C512   1.390       .  A
C507        F514   1.359       .  S
C508        C509   1.403       .  A
C509        C510   1.399       .  A
C509        F516   1.349       .  S
C510        C511   1.411       .  A
C510        F515   1.355       .  S
C511        C512   1.434       .  A
C511        C970   1.554       .  S
C512        F513   1.355   1_545  S
C517        C518   1.414       .  A
C517        C522   1.393       .  A
C517        F524   1.355       .  S
C518        C519   1.434       .  A
C519        C520   1.392       .  A
C519       F1142   1.357       .  S
C520        C521   1.390       .  A
C520        F525   1.359       .  S
C521        C522   1.406       .  A
C522        F523   1.359       .  S
F526       C1135   1.357   1_545  S
C527        C532   1.395       .  A
C527       F1150   1.352       .  S
C528        C529   1.417       .  A
C528        C970   1.565       .  S
C529        C530   1.401       .  A
C529        F536   1.355       .  S
C530        F535   1.359       .  S
C531        C532   1.397       .  A
C532        F533   1.359       .  S
F534       C1143   1.352       .  S
C537        C538   1.405       .  A
C537        C542   1.402       .  A
C537        F544   1.359       .  S
C538        C539   1.399       .  A
C539        C540   1.395       .  A
C539        F546   1.359       .  S
C540        C541   1.434       .  A
C540        F545   1.352       .  S
C541        C542   1.426       .  A
C542        F543   1.358       .  S
C547        C552   1.388       .  A
C547        F554   1.354       .  S
C548        C549   1.422       .  A
C549        F556   1.358       .  S
C550        C551   1.407   1_554  A
C550        F555   1.358       .  S
C551        C552   1.384       .  A
C552        F553   1.359       .  S
C557        C558   1.390       .  A
C557        C562   1.395       .  A
C557        F564   1.358       .  S
C558        C559   1.400       .  A
C559        C560   1.394       .  A
C559        F566   1.354       .  S
C560        C561   1.417       .  A
C560        F565   1.353       .  S
C561        C562   1.432       .  A
C562        F563   1.359       .  S
C567        C568   1.434       .  A
C567        F574   1.358       .  S
C569        C570   1.395       .  A
C569        F576   1.355       .  S
C570        C571   1.404   1_554  A
C570        F575   1.355       .  S
C571        C572   1.387       .  A
C572        F573   1.359       .  S
C577        C578   1.401       .  A
C577        C582   1.405       .  A
C577        F584   1.358       .  S
C578        C579   1.382       .  A
C579        C580   1.382       .  A
C579        F586   1.360       .  S
C580        C581   1.447       .  A
C580        F585   1.356       .  S
C581        C582   1.430       .  A
C582        F583   1.354       .  S
C587        C588   1.409       .  A
C587        C592   1.403       .  A
C587        F594   1.354       .  S
C588        C589   1.434       .  A
C589        C590   1.394       .  A
C589        F596   1.357       .  S
C590        C591   1.388       .  A
C590        F595   1.358       .  S
C591        C592   1.409       .  A
C592        F593   1.348       .  S
C597        C602   1.399       .  A
C598        C599   1.421       .  A
C599        F606   1.355       .  S
C600        C601   1.402   1_554  A
C600        F605   1.356       .  S
C601        C602   1.399       .  A
C602        F603   1.359       .  S
C607        C608   1.381       .  A
C607        C612   1.384       .  A
C607        F614   1.360       .  S
C609        C610   1.390       .  A
C609        F616   1.351       .  S
C610        C611   1.409       .  A
C610        F615   1.354       .  S
C611       C1013   1.540   1_545  S
C612        F613   1.357   1_545  S
O617        V625   1.905       .  S
O617        C627   1.265       .  A
O618        V625   1.928       .  S
O618        C628   1.272       .  A
O619        V625   1.907       .  S
O619        C629   1.263       .  A
O620        V625   1.916       .  S
O620        C630   1.268       .  A
O621        V626   1.905       .  S
O621        C630   1.265       .  A
O622        V626   1.896       .  S
O622        C629   1.266       .  A
O623        V626   1.893       .  S
O623        C628   1.261       .  A
O624        V626   1.876       .  S
O624        C627   1.257       .  A
V625        V626   2.086       .  T
C627        C916   1.454       .  S
C628        C639   1.496       .  S
C629        C909   1.477       .  S
C630        C632   1.496       .  S
C631        C748   1.502   1_455  S
C631        C632   1.416       .  A
C631        C636   1.422       .  A
C632        C633   1.417       .  A
C633        H638   1.086       .  S
C634        C657   1.496       .  S
C634        C635   1.422       .  A
C635        C763   1.509   1_455  S
C636        H637   1.085   1_455  S
C639        C640   1.425       .  A
C639        C644   1.417       .  A
C640        C750   1.507   1_455  S
C640        C641   1.417   1_455  A
C641        C642   1.419   1_655  A
C641        H646   1.086       .  S
C642        C761   1.493   1_455  S
C642        C643   1.417       .  A
C643        C659   1.501       .  S
C643        C644   1.415       .  A
C644        H645   1.086       .  S
O647        V655   1.898       .  S
O647        C657   1.262       .  A
O648        V655   1.886       .  S
O648        C658   1.260       .  A
O649        V655   1.914       .  S
O649        C659   1.268       .  A
O650        V655   1.897       .  S
O650        C660   1.267       .  A
O651        V656   1.903       .  S
O651        C660   1.264       .  A
O652        V656   1.918       .  S
O652        C659   1.268       .  A
O653        V656   1.900       .  S
O653        C658   1.267       .  A
O654        V656   1.923       .  S
O654        C657   1.270       .  A
V655        V656   2.083       .  T
C658        C899   1.475       .  S
C660        C886   1.490       .  S
C661        C849   1.558       .  S
C661        C856   1.557       .  S
C661        C869   1.568       .  S
C661        C876   1.555       .  S
C662        C806   1.562   1_545  S
C662        C826   1.579   1_545  S
O663        V671   1.904       .  S
O663        C673   1.265       .  A
O664        V671   1.915       .  S
O664        C674   1.269       .  A
O665        V671   1.880       .  S
O665        C675   1.258       .  A
O666        V671   1.887       .  S
O666        C676   1.260       .  A
O667        V672   1.927       .  S
O667        C676   1.271       .  A
O668        V672   1.906       .  S
O668        C675   1.267       .  A
O669        V672   1.916       .  S
O669        C674   1.267       .  A
O670        V672   1.902       .  S
O670        C673   1.263       .  A
V671        V672   2.085       .  T
C673        C816   1.474       .  S
C674        C729   1.505       .  S
C675        C846   1.466       .  S
C676        C721   1.493       .  S
O677        V685   1.910       .  S
O677        C687   1.267       .  A
O678        V685   1.900       .  S
O678        C688   1.266       .  A
O679        V685   1.915       .  S
O679        C689   1.267       .  A
O680        V685   1.897       .  S
O680        C690   1.263       .  A
O681        V686   1.893       .  S
O681        C690   1.263       .  A
O682        V686   1.901       .  S
O682        C689   1.265       .  A
O683        V686   1.880       .  S
O683        C688   1.260       .  A
O684        V686   1.893       .  S
O684        C687   1.262       .  A
V685        V686   2.084       .  T
C687        C725   1.480       .  S
C688        C859   1.476       .  S
C689        C733   1.494       .  S
C690        C809   1.465       .  S
O691        V699   1.929       .  S
O691        C701   1.271       .  A
O692        V699   1.896       .  S
O692        C702   1.268       .  A
O693        V699   1.905       .  S
O693        C703   1.264       .  A
O694        V699   1.886       .  S
O694        C704   1.258       .  A
O695        V700   1.892       .  S
O695        C704   1.267       .  A
O696        V700   1.915       .  S
O696        C703   1.269       .  A
O697        V700   1.889       .  S
O697        C702   1.259       .  A
O698        V700   1.898       .  S
O698        C701   1.263       .  A
V699        V700   2.084       .  T
C701        C732   1.501       .  S
C702        C796   1.479       .  S
C703        C724   1.492       .  S
C704        C786   1.462       .  S
C705        C799   1.563   1_545  S
C705        C889   1.595   1_545  S
O706        V714   1.886       .  S
O706        C716   1.260       .  A
O707        V714   1.891       .  S
O707        C717   1.262       .  A
O708        V714   1.881       .  S
O708        C718   1.261       .  A
O709        V714   1.891       .  S
O709        C719   1.261       .  A
O710        V715   1.922       .  S
O710        C719   1.270       .  A
O711        V715   1.911       .  S
O711        C718   1.267       .  A
O712        V715   1.920       .  S
O712        C717   1.268       .  A
O713        V715   1.899       .  S
O713        C716   1.263       .  A
V714        V715   2.083       .  T
C716        C769   1.457       .  S
C717        C722   1.494       .  S
C718        C779   1.489       .  S
C719        C730   1.490       .  S
C720        C766   1.544       .  S
C720        C789   1.557       .  S
C720        C896   1.570       .  S
C720        C906   1.569       .  S
C721        C722   1.423       .  A
C721        C726   1.411       .  A
C722        C723   1.415       .  A
C723        H728   1.081       .  S
C724        C725   1.411       .  A
C726        H727   1.081       .  S
C729        C730   1.419       .  A
C729        C734   1.414       .  A
C730        C731   1.419       .  A
C731        C732   1.417       .  A
C731        H736   1.085       .  S
C732        C733   1.420       .  A
C733        C734   1.417       .  A
C734        H735   1.085       .  S
O737        V745   1.892       .  S
O737        C747   1.260       .  A
O738        V745   1.910       .  S
O738        C748   1.264       .  A
O739        V745   1.906       .  S
O739        C749   1.268       .  A
O740        V745   1.931       .  S
O740        C750   1.272       .  A
O741        V746   1.906   1_455  S
O741        C750   1.265   1_455  A
O742        V746   1.891       .  S
O742        C749   1.260       .  A
O743        V746   1.919   1_455  S
O743        C748   1.271   1_455  A
O744        V746   1.909       .  S
O744        C747   1.267       .  A
V745        V746   2.085       .  T
C747        C879   1.470       .  S
C749        C839   1.477       .  S
O751        V759   1.903   1_455  S
O751        C761   1.265   1_455  A
O752        V759   1.891       .  S
O752        C762   1.262       .  A
O753        V759   1.920   1_455  S
O753        C763   1.270   1_455  A
O754        V759   1.903       .  S
O754        C764   1.266       .  A
O755        V760   1.903       .  S
O755        C764   1.264       .  A
O756        V760   1.921       .  S
O756        C763   1.268       .  A
O757        V760   1.897       .  S
O757        C762   1.266       .  A
O758        V760   1.916       .  S
O758        C761   1.268       .  A
V759        V760   2.084       .  T
C762        C829   1.484       .  S
C764        C866   1.479       .  S
C765        C766   1.430       .  A
C765        C770   1.394       .  A
C765        F772   1.358       .  S
C766        C767   1.409       .  A
C767        C768   1.388       .  A
C767        F774   1.356       .  S
C768        C769   1.400       .  A
C768        F773   1.346       .  S
C769        C770   1.389       .  A
C770        F771   1.358       .  S
C775        C776   1.428       .  A
C775        C780   1.407       .  A
C775        F782   1.357       .  S
C776        C777   1.423       .  A
C777        C778   1.389       .  A
C777        F784   1.350       .  S
C778        C779   1.405       .  A
C778        F783   1.359       .  S
C779        C780   1.406       .  A
C780        F781   1.357       .  S
C785        C786   1.409       .  A
C785        C790   1.409       .  A
C785        F792   1.358       .  S
C786        C787   1.378       .  A
C787       C1096   1.380       .  A
C787        F794   1.360       .  S
C788       C1095   1.398       .  A
C788        C789   1.434   1_556  A
C788        F793   1.357       .  S
C789       C1098   1.412       .  A
C790       C1097   1.417       .  A
C790        F791   1.356       .  S
C795        C796   1.407       .  A
C795       C1108   1.407       .  A
C795       F1110   1.359       .  S
C796        C797   1.385       .  A
C797        C798   1.388       .  A
C797        F804   1.360       .  S
C798       C1107   1.454       .  A
C799       C1106   1.440   1_554  A
C799        C800   1.412       .  A
C800       C1103   1.390       .  A
C800        F801   1.352       .  S
F802       C1103   1.359       .  S
C805        C806   1.418       .  A
C805       C1118   1.395   1_554  A
C805        F812   1.353       .  S
C806       C1115   1.432   1_565  A
C807       C1114   1.432       .  A
C807        C808   1.394       .  A
C808        C809   1.391       .  A
C808        F813   1.359       .  S
C809        C810   1.401       .  A
C810       C1113   1.395       .  A
C810        F811   1.352       .  S
C815        C816   1.392       .  A
C815        C820   1.399       .  A
C815        F822   1.358       .  S
C816        C817   1.403       .  A
C817        C818   1.402       .  A
C817        F824   1.356       .  S
C818        C819   1.418       .  A
C818        F823   1.352       .  S
C819        C820   1.436       .  A
C820        F821   1.359       .  S
C825        C826   1.427       .  A
C825        C830   1.398       .  A
C825        F832   1.359       .  S
C826        C827   1.431       .  A
C827        C828   1.395       .  A
C828        C829   1.400       .  A
C828        F833   1.358       .  S
C829        C830   1.406       .  A
C830        F831   1.358       .  S
C835       C1144   1.434       .  A
C835        C840   1.395       .  A
C836       C1143   1.438   1_554  A
C836        C837   1.427       .  A
C837        C838   1.400       .  A
C837        F844   1.358       .  S
C838       C1147   1.405   1_554  A
C838        F843   1.358       .  S
C839       C1146   1.407       .  A
C839        C840   1.392       .  A
C840        F841   1.358       .  S
C845        C846   1.404       .  A
C845        C850   1.396       .  A
C845        F852   1.359       .  S
C846        C847   1.390       .  A
C847        C848   1.394       .  A
C847        F854   1.358       .  S
C848        C849   1.431       .  A
C848        F853   1.355       .  S
C849        C850   1.417       .  A
C850        F851   1.354       .  S
C855       C1164   1.434       .  A
C855        C860   1.396       .  A
C855        F862   1.354       .  S
C856       C1163   1.435   1_554  A
C856        C857   1.413       .  A
C857       C1166   1.398       .  A
C857        F864   1.355       .  S
C858       C1165   1.392       .  A
C858        C859   1.404       .  A
C858        F863   1.359       .  S
C859        C860   1.396       .  A
C860        F861   1.359       .  S
C865        C866   1.395       .  A
C865        C870   1.400       .  A
C865        F872   1.359       .  S
C866        C867   1.404       .  A
C867        C868   1.400       .  A
C867        F874   1.356       .  S
C868        C869   1.417       .  A
C868        F873   1.354       .  S
C869        C870   1.434       .  A
C870        F871   1.356       .  S
C875        C876   1.435   1_556  A
C875       C1188   1.389       .  A
C875        F882   1.356       .  S
C876       C1185   1.413       .  A
C877       C1184   1.412       .  A
C877        C878   1.399       .  A
C877        F884   1.353       .  S
C878        C879   1.405       .  A
C878        F883   1.353       .  S
C879        C880   1.390       .  A
C880       C1183   1.396       .  A
C880        F881   1.358       .  S
C885        C886   1.408       .  A
C885        C890   1.408       .  A
C885        F892   1.358       .  S
C886        C887   1.404       .  A
C887        C888   1.394       .  A
C887        F894   1.358       .  S
C888        C889   1.418       .  A
C888        F893   1.347       .  S
C889        C890   1.424       .  A
C890        F891   1.356       .  S
C895        C896   1.438       .  A
C895        C900   1.391       .  A
C895        F902   1.357       .  S
C896        C897   1.418       .  A
C897        C898   1.397       .  A
C897        F904   1.358       .  S
C898        C899   1.407       .  A
C898        F903   1.357       .  S
C899        C900   1.392       .  A
C900        F901   1.359       .  S
C905       C1214   1.439       .  A
C905        C910   1.387       .  A
C905       F1220   1.356       .  S
C906       C1213   1.433   1_554  A
C906        C907   1.420       .  A
C907       C1216   1.393       .  A
C907        F914   1.356       .  S
C908       C1215   1.412       .  A
C908        C909   1.408       .  A
C908        F913   1.358       .  S
C909        C910   1.386       .  A
C910        F911   1.359       .  S
F912       C1213   1.355       .  S
C915        C916   1.391       .  A
C915        C920   1.394       .  A
C915        F922   1.358       .  S
C916       C1225   1.402       .  A
C917       C1224   1.397   1_554  A
C917        C918   1.388       .  A
C917        F924   1.354       .  S
C918        C919   1.416       .  A
C918        F923   1.348       .  S
C919       C1228   1.445   1_554  A
C920       C1227   1.434       .  A
C920        F921   1.359       .  S
O925        V933   1.887       .  S
O925        C935   1.263       .  A
O926        V933   1.904       .  S
O926        C936   1.265       .  A
O927        V933   1.896       .  S
O927        C937   1.263       .  A
O928        V933   1.906       .  S
O928        C938   1.265       .  A
O929        V934   1.898       .  S
O929        C938   1.264       .  A
O930        V934   1.894       .  S
O930        C937   1.265       .  A
O931        V934   1.883       .  S
O931        C936   1.259       .  A
O932        V934   1.868       .  S
O932        C935   1.256       .  A
V933        V934   2.088       .  T
C935       C1224   1.450       .  S
C936        C947   1.471       .  S
C937       C1217   1.478       .  S
C938        C940   1.483       .  S
C939       C1056   1.493   1_455  S
C939        C940   1.413       .  A
C939        C944   1.411   1_455  A
C940        C941   1.414       .  A
C941        H946   1.087       .  S
C942        C965   1.494       .  S
C942        C943   1.418       .  A
C943       C1071   1.487   1_455  S
C944        H945   1.086       .  S
C947        C948   1.413       .  A
C947        C952   1.407       .  A
C948       C1058   1.498   1_455  S
C948        C949   1.413   1_455  A
C949        C950   1.417   1_655  A
C949        H954   1.085       .  S
C950       C1069   1.483   1_455  S
C950        C951   1.421       .  A
C951        C967   1.495       .  S
C951        C952   1.403       .  A
C952        H953   1.086       .  S
O955        V963   1.889       .  S
O955        C965   1.260       .  A
O956        V963   1.891       .  S
O956        C966   1.260       .  A
O957        V963   1.907       .  S
O957        C967   1.265       .  A
O958        V963   1.881       .  S
O958        C968   1.263       .  A
O959        V964   1.897       .  S
O959        C968   1.261       .  A
O960        V964   1.917       .  S
O960        C967   1.268       .  A
O961        V964   1.913       .  S
O961        C966   1.268       .  A
O962        V964   1.927       .  S
O962        C965   1.271       .  A
V963        V964   2.086       .  T
C966       C1207   1.474       .  S
C968       C1194   1.465       .  S
C969       C1157   1.583       .  S
C969       C1164   1.574       .  S
C969       C1177   1.561       .  S
C969       C1184   1.562       .  S
C970       C1114   1.555   1_545  S
C970       C1134   1.558   1_545  S
O971        V979   1.895       .  S
O971        C981   1.262       .  A
O972        V979   1.911       .  S
O972        C982   1.267       .  A
O973        V979   1.902       .  S
O973        C983   1.265       .  A
O974        V979   1.909       .  S
O974        C984   1.267       .  A
O975        V980   1.911       .  S
O975        C984   1.265       .  A
O976        V980   1.892       .  S
O976        C983   1.265       .  A
O977        V980   1.914       .  S
O977        C982   1.267       .  A
O978        V980   1.895       .  S
O978        C981   1.263       .  A
V979        V980   2.086       .  T
C981       C1124   1.464       .  S
C982       C1037   1.494       .  S
C983       C1154   1.487       .  S
C984       C1029   1.493       .  S
O985        V993   1.929       .  S
O985        C995   1.271       .  A
O986        V993   1.908       .  S
O986        C996   1.269       .  A
O987        V993   1.917       .  S
O987        C997   1.266       .  A
O988        V993   1.893       .  S
O988        C998   1.261       .  A
O989        V994   1.900       .  S
O989        C998   1.264       .  A
O990        V994   1.914       .  S
O990        C997   1.269       .  A
O991        V994   1.872       .  S
O991        C996   1.255       .  A
O992        V994   1.872       .  S
O992        C995   1.256       .  A
V993        V994   2.086       .  T
C995       C1033   1.486       .  S
C996       C1167   1.460       .  S
C997       C1041   1.506       .  S
C998       C1117   1.462       .  S
O999       V1007   1.918       .  S
O999       C1009   1.269       .  A
O1000      V1007   1.903       .  S
O1000      C1010   1.267       .  A
O1001      V1007   1.910       .  S
O1001      C1011   1.265       .  A
O1002      V1007   1.897       .  S
O1002      C1012   1.261       .  A
O1003      V1008   1.899       .  S
O1003      C1012   1.265       .  A
O1004      V1008   1.907       .  S
O1004      C1011   1.267       .  A
O1005      V1008   1.869       .  S
O1005      C1010   1.256       .  A
O1006      V1008   1.880       .  S
O1006      C1009   1.258       .  A
V1007      V1008   2.087       .  T
C1009      C1040   1.481       .  S
C1010      C1104   1.461       .  S
C1011      C1032   1.497       .  S
C1012      C1094   1.465       .  S
C1013      C1107   1.608       .  S
C1013      C1197   1.597       .  S
O1014      V1022   1.897       .  S
O1014      C1024   1.264       .  A
O1015      V1022   1.894       .  S
O1015      C1025   1.263       .  A
O1016      V1022   1.875       .  S
O1016      C1026   1.260       .  A
O1017      V1022   1.900       .  S
O1017      C1027   1.262       .  A
O1018      V1023   1.925       .  S
O1018      C1027   1.272       .  A
O1019      V1023   1.908       .  S
O1019      C1026   1.267       .  A
O1020      V1023   1.907       .  S
O1020      C1025   1.266       .  A
O1021      V1023   1.898       .  S
O1021      C1024   1.263       .  A
V1022      V1023   2.083       .  T
C1024      C1077   1.467       .  S
C1025      C1030   1.484       .  S
C1026      C1087   1.481       .  S
C1027      C1038   1.492       .  S
C1028      C1074   1.556       .  S
C1028      C1097   1.577       .  S
C1028      C1204   1.561       .  S
C1028      C1214   1.579       .  S
C1029      C1030   1.414       .  A
C1029      C1034   1.417       .  A
C1030      C1031   1.411       .  A
C1031      H1036   1.081       .  S
C1032      C1033   1.419       .  A
C1034      H1035   1.081       .  S
C1037      C1038   1.419       .  A
C1037      C1042   1.419       .  A
C1038      C1039   1.410       .  A
C1039      C1040   1.412       .  A
C1039      H1044   1.085       .  S
C1040      C1041   1.419       .  A
C1041      C1042   1.416       .  A
C1042      H1043   1.085       .  S
O1045      V1053   1.894       .  S
O1045      C1055   1.264       .  A
O1046      V1053   1.918       .  S
O1046      C1056   1.267       .  A
O1047      V1053   1.897       .  S
O1047      C1057   1.266       .  A
O1048      V1053   1.919       .  S
O1048      C1058   1.268       .  A
O1049      V1054   1.907       .  S
O1049      C1058   1.266       .  A
O1050      V1054   1.894       .  S
O1050      C1057   1.263       .  A
O1051      V1054   1.896       .  S
O1051      C1056   1.264       .  A
O1052      V1054   1.882       .  S
O1052      C1055   1.260       .  A
V1053      V1054   2.085       .  T
C1055      C1187   1.462       .  S
C1057      C1147   1.485       .  S
O1059      V1067   1.884       .  S
O1059      C1069   1.259       .  A
O1060      V1067   1.874       .  S
O1060      C1070   1.257       .  A
O1061      V1067   1.904       .  S
O1061      C1071   1.266       .  A
O1062      V1067   1.902       .  S
O1062      C1072   1.265       .  A
O1063      V1068   1.889       .  S
O1063      C1072   1.259       .  A
O1064      V1068   1.904       .  S
O1064      C1071   1.263       .  A
O1065      V1068   1.906       .  S
O1065      C1070   1.268       .  A
O1066      V1068   1.921       .  S
O1066      C1069   1.270       .  A
V1067      V1068   2.087       .  T
C1070      C1137   1.466       .  S
C1072      C1174   1.461       .  S
C1073      C1074   1.434       .  A
C1073      C1078   1.389       .  A
C1073      F1080   1.358       .  S
C1074      C1075   1.408       .  A
C1075      C1076   1.404       .  A
C1075      F1082   1.353       .  S
C1076      C1077   1.410       .  A
C1076      F1081   1.351       .  S
C1077      C1078   1.386       .  A
C1078      F1079   1.359       .  S
C1083      C1084   1.424       .  A
C1083      C1088   1.401       .  A
C1083      F1090   1.357       .  S
C1084      C1085   1.413       .  A
C1085      C1086   1.388       .  A
C1085      F1092   1.353       .  S
C1086      C1087   1.409       .  A
C1086      F1091   1.358       .  S
C1087      C1088   1.406       .  A
C1088      F1089   1.358       .  S
C1093      C1094   1.397       .  A
C1093      C1098   1.392   1_556  A
C1093      F1100   1.347       .  S
C1094      C1095   1.390       .  A
C1095      F1102   1.358       .  S
C1096      C1097   1.445       .  A
C1096      F1101   1.355       .  S
C1098      F1099   1.354       .  S
C1103      C1104   1.405   1_554  A
C1104      C1105   1.387       .  A
C1105      C1106   1.389       .  A
C1105      F1112   1.359       .  S
C1107      C1108   1.421       .  A
C1108      F1109   1.344       .  S
C1113      C1114   1.414       .  A
C1113      F1120   1.355       .  S
C1115      C1116   1.396   1_544  A
C1116      C1117   1.391       .  A
C1116      F1121   1.358   1_565  S
C1117      C1118   1.400       .  A
C1118      F1119   1.357       .  S
C1123      C1124   1.386       .  A
C1123      C1128   1.390       .  A
C1123      F1130   1.359       .  S
C1124      C1125   1.403       .  A
C1125      C1126   1.399       .  A
C1125      F1132   1.349       .  S
C1126      C1127   1.411       .  A
C1126      F1131   1.355       .  S
C1127      C1128   1.434       .  A
C1128      F1129   1.355       .  S
C1133      C1134   1.414       .  A
C1133      C1138   1.393       .  A
C1133      F1140   1.355       .  S
C1134      C1135   1.434       .  A
C1135      C1136   1.392       .  A
C1136      C1137   1.390       .  A
C1136      F1141   1.359       .  S
C1137      C1138   1.406       .  A
C1138      F1139   1.359       .  S
C1143      C1148   1.395       .  A
C1144      C1145   1.417       .  A
C1145      C1146   1.401       .  A
C1145      F1152   1.355       .  S
C1146      F1151   1.359       .  S
C1147      C1148   1.397       .  A
C1148      F1149   1.359       .  S
C1153      C1154   1.405       .  A
C1153      C1158   1.402       .  A
C1153      F1160   1.359       .  S
C1154      C1155   1.399       .  A
C1155      C1156   1.395       .  A
C1155      F1162   1.359       .  S
C1156      C1157   1.434       .  A
C1156      F1161   1.352       .  S
C1157      C1158   1.426       .  A
C1158      F1159   1.358       .  S
C1163      C1168   1.388       .  A
C1163      F1170   1.354       .  S
C1164      C1165   1.422       .  A
C1165      F1172   1.358       .  S
C1166      C1167   1.407   1_554  A
C1166      F1171   1.358       .  S
C1167      C1168   1.384       .  A
C1168      F1169   1.359       .  S
C1173      C1174   1.390       .  A
C1173      C1178   1.395       .  A
C1173      F1180   1.358       .  S
C1174      C1175   1.400       .  A
C1175      C1176   1.394       .  A
C1175      F1182   1.354       .  S
C1176      C1177   1.417       .  A
C1176      F1181   1.353       .  S
C1177      C1178   1.432       .  A
C1178      F1179   1.359       .  S
C1183      C1184   1.434       .  A
C1183      F1190   1.358       .  S
C1185      C1186   1.395       .  A
C1185      F1192   1.355       .  S
C1186      C1187   1.404   1_554  A
C1186      F1191   1.355       .  S
C1187      C1188   1.387       .  A
C1188      F1189   1.359       .  S
C1193      C1194   1.401       .  A
C1193      C1198   1.405       .  A
C1193      F1200   1.358       .  S
C1194      C1195   1.382       .  A
C1195      C1196   1.382       .  A
C1195      F1202   1.360       .  S
C1196      C1197   1.447       .  A
C1196      F1201   1.356   1_565  S
C1197      C1198   1.430       .  A
C1198      F1199   1.354       .  S
C1203      C1204   1.409       .  A
C1203      C1208   1.403       .  A
C1203      F1210   1.354       .  S
C1204      C1205   1.434       .  A
C1205      C1206   1.394       .  A
C1205      F1212   1.357       .  S
C1206      C1207   1.388       .  A
C1206      F1211   1.358       .  S
C1207      C1208   1.409       .  A
C1208      F1209   1.348       .  S
C1213      C1218   1.399       .  A
C1214      C1215   1.421       .  A
C1215      F1222   1.355       .  S
C1216      C1217   1.402   1_554  A
C1216      F1221   1.356       .  S
C1217      C1218   1.399       .  A
C1218      F1219   1.359       .  S
C1223      C1224   1.381       .  A
C1223      C1228   1.384       .  A
C1223      F1230   1.360       .  S
C1225      C1226   1.390       .  A
C1225      F1232   1.351       .  S
C1226      C1227   1.409       .  A
C1226      F1231   1.354       .  S
C1228      F1229   1.357       .  S
