geometry optimzed in LAMMPS
_audit_creation_date              2020-11-30 
_audit_creation_method            'lammps2cif' 
_symmetry_space_group_name_H-M    'P1' 
_symmetry_Int_Tables_number       1 
_symmetry_cell_setting            triclinic 
loop_ 
_symmetry_equiv_pos_as_xyz 
  x,y,z 
_cell_length_a                    34.19827173 
_cell_length_b                    34.22525816274284 
_cell_length_c                    33.903192114151274 
_cell_angle_alpha                 90.1573384880549 
_cell_angle_beta                  90.02202308359004 
_cell_angle_gamma                 119.99078210828402 
loop_ 
_atom_site_label 
_atom_site_type_symbol 
_atom_site_fract_x 
_atom_site_fract_y 
_atom_site_fract_z 
_atom_site_charge 
Fe1        Fe  0.32951426  0.99780933  0.08524446     1.65800
Fe2        Fe  0.21934386  0.93982333  0.10319341     1.73200
Fe3        Fe  0.27227055  0.88841358  0.06281635     1.54400
O4          O  0.31422188  0.92739024  0.01725643    -0.81800
O5          O  0.20189175  0.88328284  0.13767936    -0.80100
O6          O  0.32681144  0.99787040  0.02448328    -0.84300
O7          O  0.37001742  0.96946543  0.08165164    -0.79200
O8          O  0.21776160  0.87291697  0.02630867    -0.81000
O9          O  0.25611263  0.97925348  0.15154660    -0.83700
C10         C  0.36430729  0.93440532  0.09875026     0.97100
C11         C  0.32134021  0.96489563  0.00284008     1.04500
O12         O  0.27280774  0.94096772  0.08406351    -1.12700
O13         O  0.23226783  0.99529196  0.06817852    -0.75100
O14         O  0.30139265  0.03844445  0.08915293    -0.78600
O15         O  0.32580111  0.89910810  0.09917075    -0.79300
C16         C  0.26782931  0.03360852  0.06991618     0.96000
O17         O  0.32785049  0.99435243  0.14604600    -0.77300
O18         O  0.17861036  0.89962617  0.05761858    -0.82400
C19         C  0.20651319  0.84877213  0.13319174     0.98600
C20         C  0.18308168  0.87736742  0.02960694     1.04500
O21         O  0.22981395  0.84553612  0.10557497    -0.78100
C22         C  0.29473102  0.99042006  0.16663602     1.02800
Fe23       Fe  0.33200143  0.99807075  0.75134479     1.65800
Fe24       Fe  0.38675539  0.94387512  0.77674673     1.73200
Fe25       Fe  0.44182694  0.04681221  0.73432647     1.54400
O26         O  0.40658281  0.05199483  0.68651724    -0.81800
O27         O  0.44114261  0.98318329  0.81357934    -0.80100
O28         O  0.33499534  0.99596257  0.69049925    -0.84300
O29         O  0.36263489  0.06733801  0.74896347    -0.79200
O30         O  0.45547044  0.00526317  0.69982089    -0.81000
O31         O  0.34433860  0.94238578  0.82173995    -0.83700
C32         C  0.39737151  0.09579305  0.76741260     0.97100
C33         C  0.36879823  0.02453690  0.67043063     1.04500
O34         O  0.38759507  0.99606842  0.75423296    -1.12700
O35         O  0.33333184  0.90072846  0.74035631    -0.75100
O36         O  0.28989081  0.92943757  0.75357035    -0.78600
O37         O  0.43190597  0.09127633  0.76921337    -0.79300
C38         C  0.29538600  0.89876872  0.73864496     0.96000
O39         O  0.33173740  0.00011810  0.81200480    -0.77300
O40         O  0.42932004  0.94155281  0.73437984    -0.82400
C41         C  0.47696645  0.02098927  0.80833743     0.98600
C42         C  0.45096419  0.96640682  0.70530563     1.04500
O43         O  0.48220591  0.04594657  0.77889537    -0.78100
C44         C  0.33380232  0.97124100  0.83428351     1.02800
Fe45       Fe  0.00252107  0.33388731  0.08614785     1.65800
Fe46       Fe  0.05952061  0.28095868  0.10612176     1.73200
Fe47       Fe  0.11179698  0.38443668  0.06462437     1.54400
O48         O  0.07387134  0.38749757  0.01811509    -0.81800
O49         O  0.11485949  0.32049716  0.14190781    -0.80100
O50         O  0.00221138  0.33170168  0.02533556    -0.84300
O51         O  0.03103549  0.40272704  0.08274536    -0.79200
O52         O  0.12705453  0.34415610  0.02913494    -0.81000
O53         O  0.01873703  0.27838505  0.15295206    -0.83700
C54         C  0.06634968  0.43199857  0.09976135     0.97100
C55         C  0.03479415  0.36011557  0.00399954     1.04500
O56         O  0.05886380  0.33309540  0.08552159    -1.12700
O57         O  0.00497661  0.23820000  0.07014553    -0.75100
O58         O  0.96206685  0.26518252  0.08952756    -0.78600
O59         O  0.10149293  0.42843296  0.10016778    -0.79300
C60         C  0.96688120  0.23602861  0.07084085     0.96000
O61         O  0.00593269  0.33624320  0.14703636    -0.77300
O62         O  0.10109433  0.27970316  0.06235890    -0.82400
C63         C  0.14949948  0.35940002  0.13714905     0.98600
C64         C  0.12310508  0.30536864  0.03387305     1.04500
O65         O  0.15340093  0.38483995  0.10848229    -0.78100
C66         C  0.00918355  0.30698331  0.16794059     1.02800
Fe67       Fe  0.33297707  0.33204102  0.91674802     1.65800
Fe68       Fe  0.28280283  0.22223635  0.89689122     1.73200
Fe69       Fe  0.38672735  0.27590807  0.93785747     1.54400
O70         O  0.42883522  0.32975446  0.90154950    -0.81800
O71         O  0.28402666  0.18095814  0.94058794    -0.80100
O72         O  0.40191244  0.37362677  0.91885357    -0.84300
O73         O  0.33201790  0.33085418  0.97761471    -0.79200
O74         O  0.38756823  0.23371618  0.89439779    -0.81000
O75         O  0.23926803  0.23239327  0.93310261    -0.83700
C76         C  0.36117647  0.32757814  0.99872113     0.97100
C77         C  0.43144143  0.36801435  0.90174760     1.04500
O78         O  0.33419556  0.27587304  0.91726818    -1.12700
O79         O  0.27791110  0.25903124  0.85010038    -0.75100
O80         O  0.33430823  0.33032814  0.85586589    -0.78600
O81         O  0.38965800  0.31765658  0.98403765    -0.79300
C82         C  0.30651279  0.29683128  0.83483882     0.96000
O83         O  0.26371230  0.30221258  0.91468970    -0.77300
O84         O  0.32298042  0.20764746  0.86097724    -0.82400
C85         C  0.30997172  0.18538957  0.96918133     0.98600
C86         C  0.36178080  0.21161181  0.86583503     1.04500
O87         O  0.34820467  0.22094017  0.97421618    -0.78100
C88         C  0.23525418  0.26725919  0.93263638     1.02800
Fe89       Fe  0.99385222  0.33278009  0.41991544     1.65800
Fe90       Fe  0.88369110  0.27519325  0.43894779     1.73200
Fe91       Fe  0.93633539  0.22299404  0.39956965     1.54400
O92         O  0.97779832  0.26053493  0.35302335    -0.81800
O93         O  0.86748108  0.22033851  0.47484135    -0.80100
O94         O  0.99261903  0.33194860  0.35882817    -0.84300
O95         O  0.03466811  0.30456079  0.41814390    -0.79200
O96         O  0.88143015  0.20666282  0.36333966    -0.81000
O97         O  0.92080764  0.31636286  0.48606674    -0.83700
C98         C  0.02867537  0.26953351  0.43557277     0.97100
C99         C  0.98827511  0.29882421  0.33792987     1.04500
O100        O  0.93703014  0.27611855  0.41929550    -1.12700
O101        O  0.89530876  0.32909346  0.40289211    -0.75100
O102        O  0.96531370  0.37334443  0.42186957    -0.78600
O103        O  0.99012439  0.23432986  0.43589495    -0.79300
C104        C  0.93067930  0.36753392  0.40363709     0.96000
O105        O  0.99163564  0.32955499  0.48084461    -0.77300
O106        O  0.84228336  0.23334307  0.39474788    -0.82400
C107        C  0.87199045  0.18574631  0.47125131     0.98600
C108        C  0.84655409  0.21074981  0.36700271     1.04500
O109        O  0.89447490  0.18145253  0.44343986    -0.78100
C110        C  0.95816328  0.32419737  0.50165858     1.02800
Fe111      Fe  0.33472679  0.33681431  0.25097416     1.65800
Fe112      Fe  0.44445057  0.39199480  0.23042894     1.73200
Fe113      Fe  0.39415342  0.44676316  0.26961076     1.54400
O114        O  0.33984082  0.43588597  0.23425915    -0.81800
O115        O  0.48726839  0.43449220  0.27351555    -0.80100
O116        O  0.29508555  0.36604567  0.25297139    -0.84300
O117        O  0.33697258  0.33933078  0.31203329    -0.79200
O118        O  0.43548277  0.48636970  0.22496086    -0.81000
O119        O  0.43244260  0.33843848  0.26742438    -0.83700
C120        C  0.34151562  0.37297671  0.33230490     0.97100
C121        C  0.30099698  0.40112991  0.23585097     1.04500
O122        O  0.39201625  0.39273039  0.25047707    -1.12700
O123        O  0.40589376  0.34951287  0.18489999    -0.75100
O124        O  0.33589743  0.33845210  0.18974780    -0.78600
O125        O  0.35327599  0.41136325  0.31694051    -0.79300
C126        C  0.36885338  0.34204639  0.16912327     0.96000
O127        O  0.36184965  0.29509422  0.24955004    -0.77300
O128        O  0.46092342  0.44634651  0.19311133    -0.82400
C129        C  0.48361407  0.45736311  0.30132677     0.98600
C130        C  0.45713934  0.48141340  0.19683750     1.04500
O131        O  0.44930097  0.46235539  0.30511963    -0.78100
C132        C  0.39661777  0.30025417  0.26706406     1.02800
Fe133      Fe  0.99513808  0.33385822  0.75368194     1.65800
Fe134      Fe  0.94177789  0.39018811  0.73288492     1.73200
Fe135      Fe  0.04710292  0.44419894  0.77153200     1.54400
O136        O  0.05173095  0.40832221  0.81890634    -0.81800
O137        O  0.97992174  0.44437195  0.69617887    -0.80100
O138        O  0.99504589  0.33686934  0.81449352    -0.84300
O139        O  0.06412738  0.36248895  0.75545090    -0.79200
O140        O  0.00852860  0.46116816  0.80722360    -0.81000
O141        O  0.93783291  0.34813450  0.68646865    -0.83700
C142        C  0.09304941  0.39699462  0.73742187     0.97100
C143        C  0.02389831  0.37061642  0.83472524     1.04500
O144        O  0.99464187  0.39028865  0.75268164    -1.12700
O145        O  0.89968597  0.33676871  0.76941117    -0.75100
O146        O  0.92625084  0.29266163  0.75217713    -0.78600
O147        O  0.08953089  0.43207873  0.73599468    -0.79300
C148        C  0.89673913  0.29839817  0.76912444     0.96000
O149        O  0.99514921  0.33427598  0.69276030    -0.77300
O150        O  0.94200326  0.43261849  0.77658759    -0.82400
C151        C  0.01914830  0.47899253  0.69880602     0.98600
C152        C  0.96910481  0.45603742  0.80398151     1.04500
O153        O  0.04632065  0.48420585  0.72655200    -0.78100
C154        C  0.96568477  0.33732986  0.67185092     1.02800
Fe155      Fe  0.33389073  0.00314032  0.41802687     1.65800
Fe156      Fe  0.27990976  0.05970296  0.39996806     1.73200
Fe157      Fe  0.38454157  0.11272625  0.43994487     1.54400
O158        O  0.38934620  0.07499347  0.48596830    -0.81800
O159        O  0.31846322  0.11521797  0.36425565    -0.80100
O160        O  0.33403463  0.00320811  0.47892258    -0.84300
O161        O  0.40318595  0.03246985  0.41883989    -0.79200
O162        O  0.34513985  0.12750129  0.47664925    -0.81000
O163        O  0.27601594  0.01911801  0.35240096    -0.83700
C164        C  0.43189068  0.06849586  0.40241865     0.97100
C165        C  0.36211068  0.03609704  0.50034101     1.04500
O166        O  0.33273480  0.05933356  0.41943629    -1.12700
O167        O  0.23786207  0.00499274  0.43576859    -0.75100
O168        O  0.26484787  0.96167994  0.41701987    -0.78600
O169        O  0.42777291  0.10322699  0.40316872    -0.79300
C170        C  0.23550787  0.96681810  0.43511823     0.96000
O171        O  0.33377829  0.00606246  0.35717319    -0.77300
O172        O  0.27976115  0.10096960  0.44454315    -0.82400
C173        C  0.35729189  0.15023855  0.36844030     0.98600
C174        C  0.30614420  0.12327896  0.47268572     1.04500
O175        O  0.38362007  0.15460093  0.39667315    -0.78100
C176        C  0.30480411  0.01033718  0.33667155     1.02800
Fe177      Fe  0.33100558  0.33969410  0.58369758     1.65800
Fe178      Fe  0.27019839  0.38865572  0.56488000     1.73200
Fe179      Fe  0.22111790  0.28406453  0.60486699     1.54400
O180        O  0.23373126  0.24182731  0.56915103    -0.81800
O181        O  0.22838006  0.38700051  0.60930904    -0.80100
O182        O  0.30524408  0.27115818  0.58500231    -0.84300
O183        O  0.33060936  0.34018455  0.64457315    -0.79200
O184        O  0.17823301  0.28244514  0.56097500    -0.81000
O185        O  0.32405426  0.43277322  0.60072323    -0.83700
C186        C  0.29867052  0.31048337  0.66564757     0.97100
C187        C  0.26991161  0.24010668  0.56927081     1.04500
O188        O  0.27314484  0.33731214  0.58445514    -1.12700
O189        O  0.31132359  0.39400651  0.51731914    -0.75100
O190        O  0.32825896  0.33894916  0.52296556    -0.78600
O191        O  0.25995064  0.28203610  0.65146467    -0.79300
C192        C  0.32246377  0.36666278  0.50211673     0.96000
O193        O  0.36971599  0.40876877  0.58196661    -0.77300
O194        O  0.21513195  0.34830618  0.52937134    -0.82400
C195        C  0.20653879  0.36030498  0.63721165     0.98600
C196        C  0.18128009  0.30876575  0.53323020     1.04500
O197        O  0.20342853  0.32181340  0.64105563    -0.78100
C198        C  0.36310526  0.43725619  0.59978076     1.02800
Fe199      Fe  0.99906639  0.66646384  0.58277717     1.65800
Fe200      Fe  0.10931549  0.72290092  0.56450119     1.73200
Fe201      Fe  0.05772345  0.77565747  0.60492561     1.54400
O202        O  0.00439417  0.76580797  0.56870843    -0.81800
O203        O  0.15098687  0.76385488  0.60898123    -0.80100
O204        O  0.95906647  0.69543730  0.58553655    -0.84300
O205        O  0.99957887  0.66563659  0.64363137    -0.79200
O206        O  0.10027997  0.81774823  0.56134925    -0.81000
O207        O  0.09663891  0.66798826  0.59982009    -0.83700
C208        C  0.00305459  0.69805304  0.66498801     0.97100
C209        C  0.96561946  0.73091621  0.56864854     1.04500
O210        O  0.05631256  0.72255734  0.58431569    -1.12700
O211        O  0.07192210  0.68246460  0.51732236    -0.75100
O212        O  0.00163165  0.67088069  0.52209535    -0.78600
O213        O  0.01566108  0.73744487  0.65121186    -0.79300
C214        C  0.03483811  0.67515628  0.50157282     0.96000
O215        O  0.02691761  0.62552915  0.57962253    -0.77300
O216        O  0.12638751  0.77857021  0.52908798    -0.82400
C217        C  0.14676388  0.78596670  0.63717869     0.98600
C218        C  0.12257086  0.81355179  0.53324383     1.04500
O219        O  0.11212700  0.79038467  0.64111049    -0.78100
C220        C  0.06078945  0.62992749  0.59821086     1.02800
Fe221      Fe  0.66157583  0.99758958  0.58766078     1.65800
Fe222      Fe  0.71610238  0.94159615  0.60500876     1.73200
Fe223      Fe  0.61134846  0.88819597  0.56509483     1.54400
O224        O  0.56788110  0.89656198  0.60252300    -0.81800
O225        O  0.71596779  0.90011467  0.56051718    -0.80100
O226        O  0.59232763  0.96762479  0.58798351    -0.84300
O227        O  0.66048409  0.99733867  0.52677305    -0.79200
O228        O  0.61341363  0.84646306  0.60769136    -0.81000
O229        O  0.75762071  0.99583444  0.56910542    -0.83700
C230        C  0.63170608  0.96467590  0.50557671     0.97100
C231        C  0.56360751  0.93119529  0.60391560     1.04500
O232        O  0.66302128  0.94168746  0.58581493    -1.12700
O233        O  0.72078516  0.98262498  0.65242796    -0.75100
O234        O  0.66263716  0.99508752  0.64848530    -0.78600
O235        O  0.60494619  0.92556615  0.51965152    -0.79300
C236        C  0.69195239  0.99099413  0.66858427     0.96000
O237        O  0.73052338  0.03916807  0.58774545    -0.77300
O238        O  0.67785765  0.88668625  0.64089467    -0.82400
C239        C  0.69004770  0.87872053  0.53184346     0.98600
C240        C  0.63944462  0.85135107  0.63630204     1.04500
O241        O  0.65119600  0.87480241  0.52769089    -0.78100
C242        C  0.75991293  0.03393336  0.56982882     1.02800
Fe243      Fe  0.99991522  0.66551120  0.25016533     1.65800
Fe244      Fe  0.05105809  0.60714783  0.27095423     1.73200
Fe245      Fe  0.94697681  0.55545064  0.23024487     1.54400
O246        O  0.90441214  0.56765861  0.26589922    -0.81800
O247        O  0.05029944  0.56405375  0.22802613    -0.80100
O248        O  0.93102673  0.63788963  0.24770710    -0.84300
O249        O  0.00123629  0.66408894  0.18936844    -0.79200
O250        O  0.94645756  0.51397574  0.27467877    -0.81000
O251        O  0.09382236  0.66011963  0.23400538    -0.83700
C252        C  0.97265890  0.63108715  0.16834594     0.97100
C253        C  0.90176740  0.60330499  0.26549403     1.04500
O254        O  0.99921790  0.60842193  0.25048568    -1.12700
O255        O  0.05581464  0.64974743  0.31690473    -0.75100
O256        O  0.99879375  0.66390298  0.31095125    -0.78600
O257        O  0.94403261  0.59305609  0.18333756    -0.79300
C258        C  0.02805212  0.66045299  0.33175733     0.96000
O259        O  0.06892365  0.70510342  0.25269981    -0.77300
O260        O  0.01136631  0.55313428  0.30764329    -0.82400
C261        C  0.02444696  0.54193356  0.19958653     0.98600
C262        C  0.97231517  0.51848091  0.30341433     1.04500
O263        O  0.98588763  0.53850638  0.19448409    -0.78100
C264        C  0.09730692  0.69876393  0.23441787     1.02800
Fe265      Fe  0.66714913  0.66672951  0.41801109     1.65800
Fe266      Fe  0.72590487  0.61589229  0.43731515     1.73200
Fe267      Fe  0.77695867  0.72060565  0.39807480     1.54400
O268        O  0.73874488  0.72286914  0.35117016    -0.81800
O269        O  0.78074179  0.65511327  0.47329505    -0.80100
O270        O  0.66827815  0.66451564  0.35722320    -0.84300
O271        O  0.69426689  0.73535549  0.41491034    -0.79200
O272        O  0.79422882  0.68238210  0.36209198    -0.81000
O273        O  0.68466718  0.61194470  0.48418223    -0.83700
C274        C  0.72860960  0.76529726  0.43263811     0.97100
C275        C  0.70135187  0.69261014  0.33610207     1.04500
O276        O  0.72437632  0.66787035  0.41790408    -1.12700
O277        O  0.67201932  0.57287488  0.40119015    -0.75100
O278        O  0.62764784  0.59783340  0.42111235    -0.78600
O279        O  0.76443276  0.76296259  0.43384526    -0.79300
C280        C  0.63332378  0.56915902  0.40258209     0.96000
O281        O  0.67009842  0.66870391  0.47888788    -0.77300
O282        O  0.76772542  0.61653865  0.39312065    -0.82400
C283        C  0.81492468  0.69450112  0.46997966     0.98600
C284        C  0.79007638  0.64340000  0.36541020     1.04500
O285        O  0.81881936  0.72130899  0.44238951    -0.78100
C286        C  0.67500405  0.64027026  0.49961148     1.02800
Fe287      Fe  0.66328117  0.66666925  0.75164812     1.65800
Fe288      Fe  0.60323098  0.55761967  0.72982122     1.73200
Fe289      Fe  0.55347791  0.61034535  0.77327179     1.54400
O290        O  0.59221035  0.65174214  0.81958759    -0.81800
O291        O  0.54914518  0.54513288  0.69379050    -0.80100
O292        O  0.66287498  0.66455555  0.81241675    -0.84300
O293        O  0.63570608  0.70776845  0.75461624    -0.79200
O294        O  0.53831624  0.55527505  0.80886925    -0.81000
O295        O  0.64585097  0.59526046  0.68414593    -0.83700
C296        C  0.60053151  0.70256162  0.73786633     0.97100
C297        C  0.63096572  0.66221789  0.83364929     1.04500
O298        O  0.60582593  0.61078661  0.75161153    -1.12700
O299        O  0.65628009  0.56623241  0.76593256    -0.75100
O300        O  0.70242786  0.63658832  0.74898945    -0.78600
O301        O  0.56460183  0.66450150  0.73783477    -0.79300
C302        C  0.69532600  0.60088116  0.76591483     0.96000
O303        O  0.66116823  0.66659415  0.69070611    -0.77300
O304        O  0.56016535  0.51522824  0.77246996    -0.82400
C305        C  0.51409105  0.54840588  0.69984897     0.98600
C306        C  0.54020317  0.51956482  0.80228376     1.04500
O307        O  0.51015529  0.56862318  0.72976985    -0.78100
C308        C  0.65692498  0.63381511  0.66952205     1.02800
Fe309      Fe  0.66704279  0.99960731  0.92041795     1.65800
Fe310      Fe  0.77666984  0.05873237  0.89966397     1.73200
Fe311      Fe  0.72322118  0.10958066  0.94020907     1.54400
O312        O  0.66865610  0.09730112  0.90472972    -0.81800
O313        O  0.81876631  0.10211025  0.94300591    -0.80100
O314        O  0.62522734  0.02673513  0.92231857    -0.84300
O315        O  0.66985794  0.00139746  0.98119081    -0.79200
O316        O  0.76396920  0.15098809  0.89575103    -0.81000
O317        O  0.76715799  0.00616280  0.93648098    -0.83700
C318        C  0.67494952  0.03448726  0.00245061     0.97100
C319        C  0.63045925  0.06167906  0.90521840     1.04500
O320        O  0.72313275  0.05687199  0.92005274    -1.12700
O321        O  0.73915340  0.01586458  0.85336909    -0.75100
O322        O  0.66779127  0.00128937  0.85959265    -0.78600
O323        O  0.68308784  0.07218784  0.98758083    -0.79300
C324        C  0.70061342  0.00529044  0.83863619     0.96000
O325        O  0.69698709  0.96028355  0.91863281    -0.77300
O326        O  0.79044764  0.11239095  0.86299487    -0.82400
C327        C  0.81408360  0.12385497  0.97131956     0.98600
C328        C  0.78560405  0.14673657  0.86715365     1.04500
O329        O  0.77864737  0.12672034  0.97563461    -0.78100
C330        C  0.73236374  0.96730410  0.93631419     1.02800
Fe331      Fe  0.65977914  0.99612277  0.25428182     1.65800
Fe332      Fe  0.60482526  0.05008913  0.23016786     1.73200
Fe333      Fe  0.55004875  0.94720566  0.27282368     1.54400
O334        O  0.55976632  0.90275951  0.23735338    -0.81800
O335        O  0.56214794  0.05181269  0.27246472    -0.80100
O336        O  0.62925415  0.92699661  0.25713634    -0.84300
O337        O  0.65719974  0.99852323  0.31507120    -0.79200
O338        O  0.50927151  0.94829551  0.22865268    -0.81000
O339        O  0.65830347  0.09310300  0.26662237    -0.83700
C340        C  0.62351274  0.97097134  0.33583108     0.97100
C341        C  0.59460882  0.89866308  0.23857958     1.04500
O342        O  0.60407968  0.99787844  0.25227373    -1.12700
O343        O  0.64732151  0.05243485  0.18496743    -0.75100
O344        O  0.65967008  0.99440489  0.19330953    -0.78600
O345        O  0.58597652  0.94207904  0.32018165    -0.79300
C346        C  0.65805551  0.02404603  0.17162571     0.96000
O347        O  0.70164609  0.06473843  0.25193278    -0.77300
O348        O  0.55053869  0.01067935  0.19348755    -0.82400
C349        C  0.54077455  0.02745145  0.30182192     0.98600
C350        C  0.51454025  0.97310507  0.19907740     1.04500
O351        O  0.53660390  0.98881608  0.30799086    -0.78100
C352        C  0.69637378  0.09524655  0.26751779     1.02800
Fe353      Fe  0.99361914  0.66704181  0.91655731     1.65800
Fe354      Fe  0.93630840  0.71957751  0.89643069     1.73200
Fe355      Fe  0.88457124  0.61630219  0.93843789     1.54400
O356        O  0.89456570  0.57237669  0.90248591    -0.81800
O357        O  0.89626820  0.72142507  0.94114801    -0.80100
O358        O  0.96476684  0.59822448  0.92054055    -0.84300
O359        O  0.99446841  0.66997247  0.97753289    -0.79200
O360        O  0.84170715  0.61544978  0.89531081    -0.81000
O361        O  0.99177057  0.76318250  0.93124771    -0.83700
C362        C  0.96204026  0.64111686  0.99880725     0.97100
C363        C  0.92986089  0.56907702  0.90288143     1.04500
O364        O  0.93728118  0.66774083  0.91727020    -1.12700
O365        O  0.97577310  0.72107945  0.84898089    -0.75100
O366        O  0.98899591  0.66358899  0.85576343    -0.78600
O367        O  0.92317976  0.61342861  0.98450716    -0.79300
C368        C  0.98372250  0.69123330  0.83426737     0.96000
O369        O  0.03437335  0.73569644  0.91231495    -0.77300
O370        O  0.87998141  0.67963918  0.86163815    -0.82400
C371        C  0.87505424  0.69599696  0.96999360     0.98600
C372        C  0.84524287  0.64088619  0.86673643     1.04500
O373        O  0.87038334  0.65686839  0.97426773    -0.78100
C374        C  0.02988322  0.76540157  0.93037742     1.02800
Fe375      Fe  0.66629932  0.66961519  0.08433594     1.65800
Fe376      Fe  0.61435019  0.72765272  0.06611189     1.73200
Fe377      Fe  0.71731110  0.77844884  0.10922434     1.54400
O378        O  0.72057104  0.73882004  0.15429528    -0.81800
O379        O  0.65464331  0.78334906  0.03159341    -0.80100
O380        O  0.66417479  0.66763608  0.14508317    -0.84300
O381        O  0.73516494  0.69835205  0.08750882    -0.79200
O382        O  0.67655914  0.79192649  0.14578001    -0.81000
O383        O  0.61101050  0.68757425  0.01854875    -0.83700
C384        C  0.76499520  0.73442421  0.07200748     0.97100
C385        C  0.69297493  0.69927081  0.16713353     1.04500
O386        O  0.66602420  0.72610684  0.08671519    -1.12700
O387        O  0.57113053  0.67265263  0.10069678    -0.75100
O388        O  0.59730858  0.62904236  0.08080794    -0.78600
O389        O  0.76167439  0.76967758  0.07296726    -0.79300
C390        C  0.56815082  0.63424568  0.09907631     0.96000
O391        O  0.66882545  0.67474605  0.02369253    -0.77300
O392        O  0.61346658  0.76839264  0.11066556    -0.82400
C393        C  0.69300599  0.81833740  0.03758839     0.98600
C394        C  0.63815184  0.78869872  0.14028859     1.04500
O395        O  0.71788339  0.82210465  0.06688272    -0.78100
C396        C  0.64039806  0.67963126  0.00298796     1.02800
C397        C  0.83786828  0.68865043  0.03496882    -0.21500
C398        C  0.85396254  0.71204556  0.99935413    -0.09500
C399        C  0.84726475  0.74885837  0.99157916     0.29400
C400        C  0.82146423  0.75900439  0.01732835    -0.21500
C401        C  0.80216222  0.73285569  0.05114966    -0.09500
C402        C  0.81247880  0.69894525  0.06066241     0.29400
F403        F  0.79600145  0.67398764  0.09393679    -0.20000
H404        H  0.84352000  0.66110115  0.04241085     0.17700
H405        H  0.81398225  0.78520605  0.00934973     0.17700
F406        F  0.86303678  0.77328218  0.95797881    -0.20000
C407        C  0.62886375  0.84994754  0.23019098    -0.21500
C408        C  0.59742547  0.86231648  0.21730229    -0.09500
C409        C  0.57578196  0.84589071  0.18083257     0.29400
C410        C  0.58780226  0.82021976  0.15676874    -0.21500
C411        C  0.62172131  0.81063976  0.16847039    -0.09500
C412        C  0.64098145  0.82447800  0.20617804     0.29400
F413        F  0.67248792  0.81463024  0.21952304    -0.20000
H414        H  0.64578896  0.86187980  0.25834220     0.17700
H415        H  0.57213922  0.80986822  0.12798419     0.17700
F416        F  0.54589654  0.85769438  0.16694674    -0.20000
C417        C  0.69073705  0.84876810  0.97139415    -0.21500
C418        C  0.70900291  0.85646765  0.00959030    -0.09500
C419        C  0.74089477  0.90097555  0.02095282     0.29400
C420        C  0.75163215  0.93706086  0.99542444    -0.21500
C421        C  0.73074558  0.92941306  0.95837687    -0.09500
C422        C  0.70149347  0.88474475  0.94598984     0.29400
F423        F  0.68181670  0.87596533  0.90979998    -0.20000
H424        H  0.66702995  0.81485575  0.96149495     0.17700
H425        H  0.77382934  0.97118986  0.00572878     0.17700
F426        F  0.75939268  0.91010445  0.05761920    -0.20000
C427        C  0.69086573  0.06999773  0.06890648    -0.21500
C428        C  0.67234502  0.03039096  0.04600253    -0.09500
C429        C  0.65349264  0.98841025  0.06531334     0.29400
C430        C  0.65133823  0.98642325  0.10663718    -0.21500
C431        C  0.66791695  0.02612498  0.12913243    -0.09500
C432        C  0.68877389  0.06799477  0.10989134     0.29400
F433        F  0.70674162  0.10713185  0.13077916    -0.20000
H434        H  0.70698755  0.10289691  0.05509157     0.17700
H435        H  0.63482031  0.95380109  0.12096304     0.17700
F436        F  0.63572287  0.94932795  0.04442912    -0.20000
C437        C  0.81430920  0.64225621  0.80031391    -0.21500
C438        C  0.80693210  0.62482080  0.83870759    -0.09500
C439        C  0.76244718  0.59329028  0.85032570     0.29400
C440        C  0.72608440  0.58210884  0.82485730    -0.21500
C441        C  0.73338144  0.60216542  0.78758435    -0.09500
C442        C  0.77800069  0.63097458  0.77491127     0.29400
F443        F  0.78637277  0.64979679  0.73846848    -0.20000
H444        H  0.84819353  0.66564014  0.79026848     0.17700
H445        H  0.69202187  0.56037743  0.83541793     0.17700
F446        F  0.75360590  0.57569649  0.88724167    -0.20000
C447        C  0.66578506  0.65967081  0.89779654    -0.21500
C448        C  0.63779353  0.67112597  0.87635013    -0.09500
C449        C  0.61258978  0.68690763  0.89665599     0.29400
C450        C  0.61404237  0.68950509  0.93756051    -0.21500
C451        C  0.64052778  0.67642999  0.95943768    -0.09500
C452        C  0.66719311  0.66220779  0.93909304     0.29400
F453        F  0.69368765  0.64974416  0.95890706    -0.20000
H454        H  0.68523881  0.64712364  0.88268880     0.17700
H455        H  0.59403068  0.70177079  0.95208040     0.17700
F456        F  0.58620000  0.69967843  0.87699865    -0.20000
C457        C  0.66618061  0.67348165  0.56319986    -0.21500
C458        C  0.66982652  0.63935547  0.54309827    -0.09500
C459        C  0.67137499  0.60542379  0.56533796     0.29400
C460        C  0.66903115  0.60553307  0.60616001    -0.21500
C461        C  0.66457355  0.63889777  0.62640393    -0.09500
C462        C  0.66352050  0.67333388  0.60455864     0.29400
F463        F  0.65873875  0.70602017  0.62287159    -0.20000
H464        H  0.66548105  0.70033249  0.54695646     0.17700
H465        H  0.67008318  0.57859947  0.62195411     0.17700
F466        F  0.67481216  0.57148870  0.54793104    -0.20000
C467        C  0.73769743  0.71342415  0.27035453    -0.21500
C468        C  0.69777267  0.69076635  0.29255935    -0.09500
C469        C  0.65623038  0.66615945  0.27258149     0.29400
C470        C  0.65489510  0.66652787  0.23125314    -0.21500
C471        C  0.69481393  0.69135065  0.20951181    -0.09500
C472        C  0.73634121  0.71375989  0.22940955     0.29400
F473        F  0.77573118  0.73668564  0.20923340    -0.20000
H474        H  0.77036302  0.73142919  0.28467927     0.17700
H475        H  0.62252234  0.64927913  0.21634635     0.17700
F476        F  0.61691104  0.64323643  0.29278060    -0.20000
C477        C  0.81980729  0.59239871  0.34560971    -0.21500
C478        C  0.81317474  0.62889207  0.33667351    -0.09500
C479        C  0.83079021  0.65232360  0.30115249     0.29400
C480        C  0.85681213  0.64135411  0.27674265    -0.21500
C481        C  0.86595311  0.60687464  0.28699569    -0.09500
C482        C  0.84597812  0.58147914  0.32112457     0.29400
F483        F  0.85439966  0.54837694  0.33243725    -0.20000
H484        H  0.80649372  0.57350074  0.37260882     0.17700
H485        H  0.87141661  0.66122668  0.25040094     0.17700
F486        F  0.82399837  0.68664872  0.29035399    -0.20000
C487        C  0.93980942  0.59803823  0.10318656    -0.21500
C488        C  0.97166426  0.63550535  0.12491998    -0.09500
C489        C  0.00275167  0.67466408  0.10439862     0.29400
C490        C  0.00084688  0.67610940  0.06306595    -0.21500
C491        C  0.96812432  0.63863652  0.04173713    -0.09500
C492        C  0.93805657  0.59934861  0.06239551     0.29400
F493        F  0.90659894  0.56173687  0.04328549    -0.20000
H494        H  0.91584230  0.56704286  0.11769233     0.17700
H495        H  0.02419686  0.70684442  0.04786002     0.17700
F496        F  0.03475921  0.71144641  0.12401867    -0.20000
C497        C  0.67793644  0.83448876  0.46984245    -0.21500
C498        C  0.70494703  0.85606178  0.50290679    -0.09500
C499        C  0.74419985  0.85291978  0.50902238     0.29400
C500        C  0.75374513  0.82578664  0.48435958    -0.21500
C501        C  0.72464277  0.80152927  0.45313775    -0.09500
C502        C  0.68756986  0.80771944  0.44519426     0.29400
F503        F  0.65926302  0.78641160  0.41445719    -0.20000
H504        H  0.64817218  0.83696686  0.46367277     0.17700
H505        H  0.78254657  0.82183624  0.49106267     0.17700
F506        F  0.77226650  0.87410996  0.53989605    -0.20000
C507        C  0.64946500  0.82112972  0.69994663    -0.21500
C508        C  0.62469284  0.81409351  0.66507953    -0.09500
C509        C  0.58708689  0.77091575  0.65769736     0.29400
C510        C  0.57683822  0.73513285  0.68338253    -0.21500
C511        C  0.60378179  0.74168574  0.71667022    -0.09500
C512        C  0.63920309  0.78551075  0.72551596     0.29400
F513        F  0.66533623  0.79370870  0.75809802    -0.20000
H514        H  0.67781583  0.85406849  0.70699496     0.17700
H515        H  0.54959962  0.70172812  0.67584981     0.17700
F516        F  0.56158952  0.76243222  0.62467542    -0.20000
C517        C  0.66863212  0.99855523  0.44118395    -0.21500
C518        C  0.62926031  0.97093137  0.46279261    -0.09500
C519        C  0.58832157  0.94514272  0.44252788     0.29400
C520        C  0.58716793  0.94562994  0.40151400    -0.21500
C521        C  0.62671078  0.97174100  0.37950412    -0.09500
C522        C  0.66751324  0.99903288  0.39984144     0.29400
F523        F  0.70643330  0.02536285  0.37998519    -0.20000
H524        H  0.70062808  0.01841361  0.45623901     0.17700
H525        H  0.55493318  0.92518511  0.38701496     0.17700
F526        F  0.54926208  0.91913221  0.46237464    -0.20000
C527        C  0.71924530  0.98134077  0.73382471    -0.21500
C528        C  0.69300436  0.99497484  0.71221981    -0.09500
C529        C  0.66698580  0.00971574  0.73296059     0.29400
C530        C  0.66796051  0.01117993  0.77432507    -0.21500
C531        C  0.69502475  0.99832751  0.79556170    -0.09500
C532        C  0.72038784  0.98304014  0.77484005     0.29400
F533        F  0.74626998  0.96945815  0.79423097    -0.20000
H534        H  0.73897433  0.96894211  0.71900323     0.17700
H535        H  0.64871429  0.02377573  0.78971701     0.17700
F536        F  0.64135810  0.02350468  0.71347517    -0.20000
C537        C  0.88297154  0.69742968  0.55917097    -0.21500
C538        C  0.92706514  0.72933244  0.54757792    -0.09500
C539        C  0.93335054  0.75339182  0.51243621     0.29400
C540        C  0.89631909  0.74345662  0.48823764    -0.21500
C541        C  0.85255300  0.70922180  0.49852992    -0.09500
C542        C  0.84606054  0.68737413  0.53502051     0.29400
F543        F  0.80428775  0.65529711  0.54693035    -0.20000
H544        H  0.87723129  0.67866976  0.58629817     0.17700
H545        H  0.90232376  0.76087204  0.46034002     0.17700
F546        F  0.97546706  0.78366859  0.49980521    -0.20000
C547        C  0.99286608  0.66383751  0.39566678    -0.21500
C548        C  0.03037363  0.66821548  0.37477636    -0.09500
C549        C  0.06903928  0.67599321  0.39589007     0.29400
C550        C  0.06946731  0.67757947  0.43677270    -0.21500
C551        C  0.03170947  0.67188634  0.45801454    -0.09500
C552        C  0.99345158  0.66577978  0.43700341     0.29400
F553        F  0.95666671  0.66150501  0.45614890    -0.20000
H554        H  0.96264978  0.65772332  0.38008197     0.17700
H555        H  0.09990857  0.68339898  0.45174901     0.17700
F556        F  0.10673876  0.68196264  0.37717073    -0.20000
C557        C  0.97408367  0.71602621  0.76797130    -0.21500
C558        C  0.98659009  0.68967782  0.79067410    -0.09500
C559        C  0.00002811  0.66191034  0.77105797     0.29400
C560        C  0.00314964  0.66275594  0.72973937    -0.21500
C561        C  0.99286514  0.69112085  0.70754458    -0.09500
C562        C  0.97711225  0.71678968  0.72708008     0.29400
F563        F  0.96494690  0.74312760  0.70663216    -0.20000
H564        H  0.96211569  0.73663871  0.78183453     0.17700
H565        H  0.01534554  0.64266201  0.71523493     0.17700
F566        F  0.01118644  0.63488866  0.79160643    -0.20000
C567        C  0.39535922  0.49131815  0.65639357    -0.21500
C568        C  0.40192437  0.47420378  0.62092021    -0.09500
C569        C  0.44628825  0.48677148  0.60945445     0.29400
C570        C  0.48266127  0.51255868  0.63451212    -0.21500
C571        C  0.47588453  0.52672374  0.67147413    -0.09500
C572        C  0.43193198  0.51741149  0.68153475     0.29400
F573        F  0.42361982  0.53089781  0.71668498    -0.20000
H574        H  0.36157599  0.48196532  0.66595826     0.17700
H575        H  0.51609047  0.52012541  0.62543014     0.17700
F576        F  0.45438898  0.47234982  0.57468144    -0.20000
C577        C  0.47866883  0.08504769  0.34199504    -0.21500
C578        C  0.46861238  0.06766187  0.38037527    -0.07700
C579        C  0.48693505  0.04144275  0.39412482     0.29400
C580        C  0.51185110  0.02989484  0.36885752    -0.21500
C581        C  0.51917290  0.04446704  0.32951368    -0.09500
C582        C  0.50367808  0.07355333  0.31663382     0.29400
F583        F  0.50957935  0.08805654  0.27871871    -0.20000
H584        H  0.46425794  0.10467233  0.33065331     0.17700
H585        H  0.52431765  0.00840678  0.37975988     0.17700
F586        F  0.47902635  0.02535765  0.43157226    -0.20000
C587        C  0.19123770  0.88375566  0.44596951    -0.21500
C588        C  0.19966333  0.92714670  0.45636432    -0.09500
C589        C  0.17855236  0.93195869  0.49012424     0.29400
C590        C  0.15201844  0.89452928  0.51410674    -0.21500
C591        C  0.14606674  0.85163214  0.50501651    -0.09500
C592        C  0.16484738  0.84646643  0.46981377     0.29400
F593        F  0.15884786  0.80566395  0.45875743    -0.20000
H594        H  0.20659840  0.87884882  0.41989068     0.17700
H595        H  0.13777620  0.89965240  0.54081299     0.17700
F596        F  0.18597834  0.97317546  0.50150448    -0.20000
C597        C  0.31867130  0.16846513  0.53419343    -0.21500
C598        C  0.29167278  0.14675815  0.50113868    -0.09500
C599        C  0.25301612  0.15076878  0.49438396     0.29400
C600        C  0.24394419  0.17863870  0.51850210    -0.21500
C601        C  0.27307880  0.20299156  0.54966448    -0.09500
C602        C  0.30960489  0.19614152  0.55820069     0.29400
F603        F  0.33791615  0.21768714  0.58888135    -0.20000
H604        H  0.34802670  0.16541771  0.54079074     0.17700
H605        H  0.21564794  0.18323869  0.51129199     0.17700
F606        F  0.22527361  0.12992620  0.46324668    -0.20000
C607        C  0.84928471  0.21553830  0.77798396    -0.21500
C608        C  0.86013872  0.25926926  0.78978829    -0.09500
C609        C  0.84146518  0.26478008  0.82478197     0.29400
C610        C  0.81528458  0.22753491  0.84885420    -0.21500
C611        C  0.80739326  0.18426557  0.83852892    -0.09500
C612        C  0.82317553  0.17836383  0.80195132     0.29400
F613        F  0.81471314  0.13700871  0.78980313    -0.20000
H614        H  0.86283925  0.21034713  0.75085643     0.17700
H615        H  0.80329281  0.23310119  0.87669590     0.17700
F616        F  0.85156778  0.30646558  0.83742078    -0.20000
C617        C  0.14843912  0.41982327  0.68234589    -0.21500
C618        C  0.12932055  0.39404855  0.71633069    -0.09500
C619        C  0.13983062  0.36033845  0.72625722     0.29400
C620        C  0.16620877  0.35062497  0.70112436    -0.21500
C621        C  0.18292929  0.37436495  0.66571990    -0.09500
C622        C  0.17489396  0.41014587  0.65715850     0.29400
F623        F  0.19018734  0.43415876  0.62330823    -0.20000
H624        H  0.14060329  0.44565794  0.67390862     0.17700
H625        H  0.17252421  0.32360036  0.70894520     0.17700
F626        F  0.12325987  0.33553769  0.75960277    -0.20000
C627        C  0.01666988  0.54781080  0.61253118    -0.21500
C628        C  0.05595540  0.58972341  0.61906558    -0.09500
C629        C  0.08597814  0.59306131  0.64894133     0.29400
C630        C  0.07474684  0.55623380  0.67371830    -0.21500
C631        C  0.03351741  0.51546902  0.66913003    -0.09500
C632        C  0.00542274  0.51118593  0.63715275     0.29400
F633        F  0.96606749  0.47228316  0.63037302    -0.20000
H634        H  0.99319174  0.54376190  0.58927301     0.17700
H635        H  0.09759636  0.56038119  0.69756718     0.17700
F636        F  0.12479391  0.63244636  0.65575537    -0.20000
C637        C  0.91801856  0.48596725  0.82324813    -0.21500
C638        C  0.95446553  0.47927980  0.83247587    -0.09500
C639        C  0.97793648  0.49711687  0.86807726     0.29400
C640        C  0.96709698  0.52339012  0.89226641    -0.21500
C641        C  0.93279153  0.53271219  0.88169176    -0.09500
C642        C  0.90728222  0.51251305  0.84751172     0.29400
F643        F  0.87431413  0.52108518  0.83593988    -0.20000
H644        H  0.89911521  0.47247533  0.79617131     0.17700
H645        H  0.98704027  0.53813857  0.91866470     0.17700
F646        F  0.01222449  0.49031361  0.87916861    -0.20000
C647        C  0.41963278  0.26723761  0.32204522    -0.21500
C648        C  0.39308739  0.26091811  0.28849370    -0.09500
C649        C  0.35815279  0.21694801  0.27919086     0.29400
C650        C  0.34782771  0.18105197  0.30460376    -0.21500
C651        C  0.37217287  0.18782921  0.33972041    -0.09500
C652        C  0.40945778  0.23115348  0.34746427     0.29400
F653        F  0.43473248  0.23946543  0.38060296    -0.20000
H654        H  0.44661734  0.30064803  0.32990807     0.17700
H655        H  0.31983144  0.14803567  0.29718334     0.17700
F656        F  0.33272963  0.20877985  0.24613965    -0.20000
C657        C  0.32178036  0.39864350  0.43644451    -0.21500
C658        C  0.32809273  0.36761474  0.45866226    -0.09500
C659        C  0.33695033  0.33670309  0.43859417     0.29400
C660        C  0.33964422  0.33735019  0.39731319    -0.21500
C661        C  0.33383137  0.36885398  0.37538805    -0.09500
C662        C  0.32460349  0.39939830  0.39550325     0.29400
F663        F  0.31807368  0.43012638  0.37569640    -0.20000
H664        H  0.31439183  0.42257374  0.45069940     0.17700
H665        H  0.34739172  0.31392041  0.38256405     0.17700
F666        F  0.34304133  0.30588104  0.45863523    -0.20000
C667        C  0.60052382  0.51222618  0.34805784    -0.21500
C668        C  0.59412958  0.53300838  0.38121665    -0.09500
C669        C  0.55015245  0.52403324  0.39021571     0.29400
C670        C  0.51430936  0.49799978  0.36485651    -0.21500
C671        C  0.52113711  0.47993602  0.33009588    -0.09500
C672        C  0.56440572  0.48581292  0.32265322     0.29400
F673        F  0.57260658  0.46831696  0.28979660    -0.20000
H674        H  0.63396504  0.51857865  0.34047646     0.17700
H675        H  0.48129146  0.49312906  0.37198401     0.17700
F676        F  0.54189891  0.54194890  0.42277797    -0.20000
C677        C  0.52122851  0.55101026  0.10772664    -0.21500
C678        C  0.53223151  0.59471110  0.11994557    -0.09500
C679        C  0.51438489  0.59996924  0.15551454     0.29400
C680        C  0.48848749  0.56256515  0.17942331    -0.21500
C681        C  0.47996446  0.51921263  0.16851006    -0.09500
C682        C  0.49532054  0.51356237  0.13163383     0.29400
F683        F  0.48628587  0.47218732  0.11900058    -0.20000
H684        H  0.53430552  0.54603439  0.08022810     0.17700
H685        H  0.47699199  0.56805895  0.20755657     0.17700
F686        F  0.52494307  0.64156784  0.16880302    -0.20000
C687        C  0.96647693  0.45038991  0.39359301    -0.21500
C688        C  0.93380737  0.40647571  0.38200080    -0.09500
C689        C  0.91023833  0.40052069  0.34650316     0.29400
C690        C  0.92156166  0.43750072  0.32193699    -0.21500
C691        C  0.95661211  0.48099765  0.33221920    -0.09500
C692        C  0.97777650  0.48729816  0.36913622     0.29400
F693        F  0.01027317  0.52885552  0.38126024    -0.20000
H694        H  0.98478446  0.45596368  0.42104548     0.17700
H695        H  0.90438552  0.43158396  0.29384393     0.17700
F696        F  0.87891796  0.35865557  0.33397503    -0.20000
C697        C  0.11155504  0.30349392  0.44438512    -0.21500
C698        C  0.06764447  0.27192395  0.45668701    -0.09500
C699        C  0.06196643  0.24881710  0.49231429     0.29400
C700        C  0.09942294  0.25939984  0.51623200    -0.21500
C701        C  0.14305016  0.29327939  0.50513266    -0.09500
C702        C  0.14889268  0.31408670  0.46819335     0.29400
F703        F  0.19050774  0.34558458  0.45544340    -0.20000
H704        H  0.11684977  0.32148157  0.41686884     0.17700
H705        H  0.09389995  0.24275440  0.54447896     0.17700
F706        F  0.02005928  0.21881057  0.50558837    -0.20000
C707        C  0.92213382  0.31508435  0.56729163    -0.21500
C708        C  0.96132673  0.32651308  0.54539731    -0.09500
C709        C  0.00146276  0.33755118  0.56591652     0.29400
C710        C  0.00237326  0.33891949  0.60731646    -0.21500
C711        C  0.96340475  0.32922508  0.62883048    -0.09500
C712        C  0.92301602  0.31632764  0.60830146     0.29400
F713        F  0.88414645  0.30508707  0.62784145    -0.20000
H714        H  0.89030487  0.30510582  0.55270797     0.17700
H715        H  0.03394352  0.34912209  0.62248573     0.17700
F716        F  0.03992526  0.34773610  0.54620443    -0.20000
C717        C  0.81560137  0.16809761  0.30419500    -0.21500
C718        C  0.80890461  0.18713479  0.33841536    -0.09500
C719        C  0.76543768  0.18080411  0.34585202     0.29400
C720        C  0.72922083  0.15356687  0.32083772    -0.21500
C721        C  0.73558725  0.13211068  0.28820526    -0.09500
C722        C  0.77955124  0.14098336  0.27934781     0.29400
F723        F  0.78753887  0.12193761  0.24743557    -0.20000
H724        H  0.84864869  0.17297098  0.29718857     0.17700
H725        H  0.69570916  0.14701748  0.32842529     0.17700
F726        F  0.75712382  0.19858333  0.37845271    -0.20000
C727        C  0.80390236  0.11671860  0.55879041    -0.21500
C728        C  0.79578826  0.07337901  0.54874333    -0.09500
C729        C  0.81717515  0.06828276  0.51534478     0.29400
C730        C  0.84358887  0.10543253  0.49118175    -0.21500
C731        C  0.84904191  0.14820716  0.49979808    -0.09500
C732        C  0.83012350  0.15371708  0.53473434     0.29400
F733        F  0.83568674  0.19450807  0.54522586    -0.20000
H734        H  0.78831486  0.12175952  0.58464430     0.17700
H735        H  0.85800620  0.10014504  0.46466465     0.17700
F736        F  0.81003628  0.02702949  0.50442328    -0.20000
C737        C  0.50650998  0.48774922  0.86811119    -0.21500
C738        C  0.51769790  0.48099817  0.82985574    -0.09500
C739        C  0.50567567  0.43679278  0.81788331     0.29400
C740        C  0.48084218  0.40017670  0.84297500    -0.21500
C741        C  0.46725546  0.40681171  0.88017478    -0.09500
C742        C  0.48158899  0.45112754  0.89306355     0.29400
F743        F  0.47002088  0.45889500  0.92934029    -0.20000
H744        H  0.51605759  0.52134884  0.87842100     0.17700
H745        H  0.46955147  0.36634122  0.83220843     0.17700
F746        F  0.51523138  0.42838731  0.78102884    -0.20000
C747        C  0.28214699  0.26574696  0.72675028    -0.21500
C748        C  0.30546476  0.30785122  0.70829102    -0.09500
C749        C  0.33088342  0.34671522  0.73147532     0.29400
C750        C  0.33142452  0.34323063  0.77268607    -0.21500
C751        C  0.30667218  0.30101725  0.79126482    -0.09500
C752        C  0.28285501  0.26212498  0.76755097     0.29400
F753        F  0.26015175  0.22023252  0.78352380    -0.20000
H754        H  0.26273321  0.23531989  0.70944738     0.17700
H755        H  0.35050977  0.37363575  0.79005494     0.17700
F756        F  0.35322766  0.38812639  0.71456648    -0.20000
C757        C  0.40030229  0.33883710  0.06268605    -0.21500
C758        C  0.36292886  0.33470354  0.04196248    -0.09500
C759        C  0.32695159  0.33335442  0.06342279     0.29400
C760        C  0.32838324  0.33502211  0.10486629    -0.21500
C761        C  0.36556263  0.33799536  0.12545422    -0.09500
C762        C  0.40173510  0.34028066  0.10355982     0.29400
F763        F  0.43893547  0.34373270  0.12132681    -0.20000
H764        H  0.42871419  0.34027883  0.04723191     0.17700
H765        H  0.30044980  0.33402237  0.12079224     0.17700
F766        F  0.29003660  0.32928582  0.04461883    -0.20000
C767        C  0.89382504  0.15023533  0.99312233    -0.21500
C768        C  0.85191083  0.14772776  0.99977936    -0.09500
C769        C  0.84745380  0.17013831  0.03284425     0.29400
C770        C  0.88446804  0.19610886  0.05711503    -0.21500
C771        C  0.92703483  0.20088087  0.04917972    -0.09500
C772        C  0.93110997  0.17659079  0.01749545     0.29400
F773        F  0.97151226  0.18028033  0.00862488    -0.20000
H774        H  0.89833325  0.13314714  0.96810904     0.17700
H775        H  0.88003056  0.21404715  0.08149419     0.17700
F776        F  0.80779463  0.16838962  0.04126815    -0.20000
C777        C  0.99340789  0.32855890  0.89833168    -0.21500
C778        C  0.02587355  0.36707932  0.87812358    -0.09500
C779        C  0.05919407  0.40360058  0.90014753     0.29400
C780        C  0.06030564  0.40119006  0.94091182    -0.21500
C781        C  0.02865315  0.36254855  0.96115604    -0.09500
C782        C  0.99470069  0.32619906  0.93956320     0.29400
F783        F  0.96373785  0.28798846  0.95799443    -0.20000
H784        H  0.96704537  0.30021580  0.88226219     0.17700
H785        H  0.08670760  0.42984587  0.95666740     0.17700
F786        F  0.09126061  0.44194349  0.88260781    -0.20000
C787        C  0.02207810  0.50762868  0.13359733    -0.21500
C788        C  0.04000882  0.51884570  0.17188172    -0.09500
C789        C  0.07211018  0.50668214  0.18374158     0.29400
C790        C  0.08394907  0.48182841  0.15851516    -0.21500
C791        C  0.06386965  0.46832163  0.12123394    -0.09500
C792        C  0.03393921  0.48278108  0.10843828     0.29400
F793        F  0.01479219  0.47137300  0.07205066    -0.20000
H794        H  0.99807874  0.51727559  0.12339079     0.17700
H795        H  0.10635208  0.47038440  0.16927127     0.17700
F796        F  0.08984623  0.51604619  0.22068631    -0.20000
C797        C  0.00577216  0.34265652  0.23203922    -0.21500
C798        C  0.00192674  0.30525453  0.21115945    -0.09500
C799        C  0.99409038  0.26677016  0.23242992     0.29400
C800        C  0.99082926  0.26597573  0.27326172    -0.21500
C801        C  0.99490329  0.30317399  0.29449449    -0.09500
C802        C  0.00227860  0.34174149  0.27338588     0.29400
F803        F  0.00587975  0.37834263  0.29242370    -0.20000
H804        H  0.01220751  0.37287761  0.21643769     0.17700
H805        H  0.98465009  0.23548350  0.28820125     0.17700
F806        F  0.98914403  0.22932269  0.21390939    -0.20000
C807        C  0.18100424  0.35479489  0.20231057    -0.21500
C808        C  0.18747453  0.37569726  0.16548688    -0.09500
C809        C  0.23103385  0.41101167  0.15548082     0.29400
C810        C  0.26768764  0.42237631  0.18050853    -0.21500
C811        C  0.26165869  0.39880451  0.21573558    -0.09500
C812        C  0.21759755  0.36632453  0.22734417     0.29400
F813        F  0.21014864  0.34406447  0.26210035    -0.20000
H814        H  0.14777727  0.32846526  0.21127326     0.17700
H815        H  0.30124651  0.44727669  0.17089236     0.17700
F816        F  0.23902941  0.43256651  0.12033588    -0.20000
C817        C  0.15997046  0.31123188  0.96876938    -0.21500
C818        C  0.14590485  0.28996663  0.00552810    -0.09500
C819        C  0.15606314  0.25587334  0.01533910     0.29400
C820        C  0.18228739  0.24583101  0.98995581    -0.21500
C821        C  0.19884494  0.26946313  0.95447642    -0.09500
C822        C  0.18593730  0.30110519  0.94347721     0.29400
F823        F  0.19985307  0.32362593  0.90877383    -0.20000
H824        H  0.15189522  0.33678090  0.95993210     0.17700
H825        H  0.19202076  0.22162682  0.99926063     0.17700
F826        F  0.14321100  0.23416451  0.05046825    -0.20000
C827        C  0.26376132  0.84256809  0.68375425    -0.21500
C828        C  0.25665657  0.86201774  0.71747452    -0.09500
C829        C  0.21241663  0.85189987  0.72672828     0.29400
C830        C  0.17670489  0.82546736  0.70134762    -0.21500
C831        C  0.18411027  0.80857256  0.66611310    -0.09500
C832        C  0.22792348  0.81619711  0.65809866     0.29400
F833        F  0.23693485  0.80082539  0.62431542    -0.20000
H834        H  0.29756484  0.85031930  0.67579405     0.17700
H835        H  0.14336572  0.81956365  0.70872526     0.17700
F836        F  0.20388349  0.86927284  0.75951176    -0.20000
C837        C  0.39686066  0.06682608  0.56568095    -0.21500
C838        C  0.36368360  0.03057133  0.54363687    -0.09500
C839        C  0.33120529  0.99189815  0.56387151     0.29400
C840        C  0.33210253  0.99025175  0.60525147    -0.21500
C841        C  0.36536593  0.02692165  0.62702393    -0.09500
C842        C  0.39776621  0.06524567  0.60657087     0.29400
F843        F  0.43036940  0.10185866  0.62596657    -0.20000
H844        H  0.42226648  0.09721408  0.55133117     0.17700
H845        H  0.30715985  0.96008210  0.62020495     0.17700
F846        F  0.29837005  0.95599225  0.54394645    -0.20000
C847        C  0.42100243  0.15203137  0.82252643    -0.21500
C848        C  0.39543233  0.13292642  0.78820024    -0.09500
C849        C  0.36279760  0.14460696  0.77735578     0.29400
C850        C  0.35363420  0.17184633  0.80188013    -0.21500
C851        C  0.37677005  0.18832328  0.83771620    -0.09500
C852        C  0.41189599  0.17951314  0.84714104     0.29400
F853        F  0.43562946  0.19497566  0.88124835    -0.20000
H854        H  0.44614996  0.14345688  0.83162667     0.17700
H855        H  0.32722144  0.17883084  0.79330291     0.17700
F856        F  0.33830867  0.12822881  0.74370432    -0.20000
C857        C  0.54737313  0.02665419  0.89698166    -0.21500
C858        C  0.59105213  0.05876032  0.88455792    -0.09500
C859        C  0.59621108  0.08196226  0.84911134     0.29400
C860        C  0.55856377  0.07082818  0.82540012    -0.21500
C861        C  0.51514954  0.03636550  0.83649384    -0.09500
C862        C  0.50974529  0.01555450  0.87336008     0.29400
F863        F  0.46841272  0.98353230  0.88617787    -0.20000
H864        H  0.54252589  0.00864062  0.92441606     0.17700
H865        H  0.56387745  0.08772453  0.79730441     0.17700
F866        F  0.63784260  0.11264324  0.83574449    -0.20000
C867        C  0.48519475  0.97072343  0.63961573    -0.21500
C868        C  0.47276608  0.95032044  0.67683279    -0.09500
C869        C  0.48419548  0.91724711  0.68687684     0.29400
C870        C  0.51074469  0.90788173  0.66129673    -0.21500
C871        C  0.52618340  0.93128526  0.62555417    -0.09500
C872        C  0.51153207  0.96140358  0.61425227     0.29400
F873        F  0.52456050  0.98364028  0.57935768    -0.20000
H874        H  0.47592078  0.99536184  0.63059805     0.17700
H875        H  0.52187118  0.88478180  0.67070553     0.17700
F876        F  0.47258144  0.89631080  0.72240758    -0.20000
C877        C  0.39640545  0.91295542  0.15502528    -0.21500
C878        C  0.40323622  0.93700618  0.11992670    -0.09500
C879        C  0.44754949  0.96946056  0.10903650     0.29400
C880        C  0.48375667  0.97975077  0.13419043    -0.21500
C881        C  0.47666889  0.95796899  0.17066832    -0.09500
C882        C  0.43263433  0.92332540  0.18033528     0.29400
F883        F  0.42384522  0.90128846  0.21529419    -0.20000
H884        H  0.36258668  0.88823799  0.16420781     0.17700
H885        H  0.51723058  0.00585690  0.12556686     0.17700
F886        F  0.45571697  0.99264680  0.07472967    -0.20000
C887        C  0.27252689  0.01211340  0.27132209    -0.21500
C888        C  0.30370248  0.00540830  0.29306068    -0.09500
C889        C  0.33420116  0.99646087  0.27240986     0.29400
C890        C  0.33228615  0.99305527  0.23110440    -0.21500
C891        C  0.30012499  0.99858306  0.20973443    -0.09500
C892        C  0.27071047  0.00886687  0.23038144     0.29400
F893        F  0.24009487  0.01608002  0.21107312    -0.20000
H894        H  0.24921655  0.02007558  0.28596406     0.17700
H895        H  0.35525777  0.98501421  0.21591822     0.17700
F896        F  0.36567929  0.99079653  0.29190550    -0.20000
C897        C  0.24908952  0.06681569  0.01238994    -0.21500
C898        C  0.27260596  0.07311368  0.04786545    -0.09500
C899        C  0.30608095  0.11722411  0.05868501     0.29400
C900        C  0.31713199  0.15362470  0.03356632    -0.21500
C901        C  0.29518652  0.14708825  0.99711647    -0.09500
C902        C  0.26024460  0.10322583  0.98713906     0.29400
F903        F  0.23841508  0.09480154  0.95199881    -0.20000
H904        H  0.22380941  0.03322757  0.00304331     0.17700
H905        H  0.34365040  0.18689174  0.04236546     0.17700
F906        F  0.32920779  0.12510368  0.09310355    -0.20000
C907        C  0.34531211  0.01129950  0.89844333    -0.21500
C908        C  0.32476219  0.97091878  0.87659913    -0.09500
C909        C  0.30080070  0.92963586  0.89629302     0.29400
C910        C  0.29952877  0.92855794  0.93723225    -0.21500
C911        C  0.32219929  0.96854944  0.95947916    -0.09500
C912        C  0.34410383  0.01023959  0.93977182     0.29400
F913        F  0.36610972  0.04958044  0.96023868    -0.20000
H914        H  0.36430080  0.04342950  0.88358134     0.17700
H915        H  0.28111507  0.89605625  0.95157480     0.17700
F916        F  0.27932737  0.89018633  0.87588378    -0.20000
C917        C  0.11254824  0.80554614  0.94348728    -0.21500
C918        C  0.07010772  0.80115206  0.95134674    -0.09500
C919        C  0.06649108  0.82623437  0.98260440     0.29400
C920        C  0.10393706  0.85264404  0.00684443    -0.21500
C921        C  0.14558631  0.85441112  0.00055418    -0.09500
C922        C  0.14970634  0.83150433  0.96769842     0.29400
F923        F  0.18906223  0.83249543  0.95959892    -0.20000
H924        H  0.11668890  0.78709274  0.91938193     0.17700
H925        H  0.09964330  0.87012315  0.03166019     0.17700
F926        F  0.02630210  0.82310316  0.99135867    -0.20000
C927        C  0.17093665  0.81778081  0.19843516    -0.21500
C928        C  0.18346159  0.81049453  0.16096005    -0.09500
C929        C  0.17240823  0.76623799  0.15010283     0.29400
C930        C  0.14734427  0.73002178  0.17560870    -0.21500
C931        C  0.13274883  0.73721477  0.21214350    -0.09500
C932        C  0.14600476  0.78170071  0.22382205     0.29400
F933        F  0.13343813  0.79021547  0.25934705    -0.20000
H934        H  0.17966416  0.85145750  0.20786216     0.17700
H935        H  0.13689491  0.69606451  0.16570435     0.17700
F936        F  0.18323858  0.75740934  0.11392757    -0.20000
loop_ 
_geom_bond_atom_site_label_1 
_geom_bond_atom_site_label_2 
_geom_bond_distance 
_geom_bond_site_symmetry_2 
_ccdc_geom_bond_type 
Fe1          O17   2.064       .  S
Fe1           O7   2.054       .  S
Fe1          O14   2.053   1_565  S
Fe1           O6   2.062       .  S
Fe1          O12   1.943       .  S
Fe2           O5   2.080       .  S
Fe2           O9   2.093       .  S
Fe2          O13   2.093       .  S
Fe2          O18   2.072       .  S
Fe2          O12   1.922       .  S
Fe3          O21   2.061       .  S
Fe3           O8   2.072       .  S
Fe3          O15   2.081       .  S
Fe3           O4   2.079       .  S
Fe3          O12   1.927       .  S
O4           C11   1.279       .  A
O5           C19   1.276       .  A
O6           C11   1.277       .  A
O7           C10   1.258       .  A
O8           C20   1.274       .  A
O9           C22   1.283       .  A
C10          O15   1.266       .  A
C10         C878   1.475       .  S
C11         C911   1.475   1_554  S
O13          C16   1.268   1_565  A
O14          C16   1.257       .  A
C16         C898   1.483       .  S
O17          C22   1.279       .  A
O18          C20   1.272       .  A
C19          O21   1.270       .  A
C19         C928   1.483       .  S
C20         C921   1.490       .  S
C22         C891   1.481       .  S
Fe23         O39   2.058   1_565  S
Fe23         O29   2.060   1_565  S
Fe23         O36   2.053       .  S
Fe23         O28   2.068       .  S
Fe23         O34   1.939       .  S
Fe24         O27   2.078       .  S
Fe24         O31   2.089       .  S
Fe24         O35   2.081       .  S
Fe24         O40   2.075       .  S
Fe24         O34   1.931       .  S
Fe25         O43   2.057       .  S
Fe25         O30   2.065       .  S
Fe25         O37   2.082       .  S
Fe25         O26   2.080       .  S
Fe25         O34   1.923   1_545  S
O26          C33   1.278       .  A
O27          C41   1.274   1_565  A
O28          C33   1.277   1_565  A
O29          C32   1.261       .  A
O30          C42   1.274   1_545  A
O31          C44   1.280       .  A
C32          O37   1.267       .  A
C32         C848   1.482       .  S
C33         C841   1.482       .  S
O35          C38   1.267       .  A
O36          C38   1.260       .  A
C38         C828   1.477       .  S
O39          C44   1.275   1_545  A
O40          C42   1.272       .  A
C41          O43   1.269       .  A
C41         C861   1.484       .  S
C42         C868   1.483       .  S
C44         C908   1.467       .  S
Fe45         O61   2.067       .  S
Fe45         O51   2.054       .  S
Fe45         O58   2.051   1_455  S
Fe45         O50   2.063       .  S
Fe45         O56   1.941       .  S
Fe46         O49   2.077       .  S
Fe46         O53   2.086       .  S
Fe46         O57   2.090       .  S
Fe46         O62   2.070       .  S
Fe46         O56   1.929       .  S
Fe47         O65   2.053       .  S
Fe47         O52   2.081       .  S
Fe47         O59   2.089       .  S
Fe47         O48   2.077       .  S
Fe47         O56   1.922       .  S
O48          C55   1.280       .  A
O49          C63   1.275       .  A
O50          C55   1.277       .  A
O51          C54   1.258       .  A
O52          C64   1.276       .  A
O53          C66   1.281       .  A
C54          O59   1.267       .  A
C54         C791   1.478       .  S
C55         C781   1.476   1_554  S
O57          C60   1.268   1_455  A
O58          C60   1.259       .  A
C60         C771   1.483       .  S
O61          C66   1.278       .  A
O62          C64   1.271       .  A
C63          O65   1.268       .  A
C63         C808   1.481       .  S
C64         C818   1.489       .  S
C66         C798   1.483       .  S
Fe67         O83   2.059       .  S
Fe67         O73   2.064       .  S
Fe67         O80   2.066       .  S
Fe67         O72   2.058       .  S
Fe67         O78   1.944       .  S
Fe68         O71   2.065       .  S
Fe68         O75   2.088       .  S
Fe68         O79   2.086       .  S
Fe68         O84   2.074       .  S
Fe68         O78   1.924       .  S
Fe69         O87   2.081       .  S
Fe69         O74   2.070       .  S
Fe69         O81   2.085       .  S
Fe69         O70   2.085       .  S
Fe69         O78   1.927       .  S
O70          C77   1.267       .  A
O71          C85   1.270       .  A
O72          C77   1.260       .  A
O73          C76   1.277       .  A
O74          C86   1.271       .  A
O75          C88   1.268       .  A
C76          O81   1.281       .  A
C76         C758   1.482   1_556  S
C77         C741   1.476       .  S
O79          C82   1.280       .  A
O80          C82   1.277       .  A
C82         C751   1.484       .  S
O83          C88   1.261       .  A
O84          C86   1.275       .  A
C85          O87   1.276       .  A
C85         C901   1.488       .  S
C86         C851   1.487       .  S
C88         C821   1.483       .  S
Fe89        O105   2.068       .  S
Fe89         O95   2.057   1_655  S
Fe89        O102   2.059       .  S
Fe89         O94   2.071       .  S
Fe89        O100   1.942       .  S
Fe90         O93   2.070       .  S
Fe90         O97   2.085       .  S
Fe90        O101   2.082       .  S
Fe90        O106   2.064       .  S
Fe90        O100   1.928       .  S
Fe91        O109   2.064       .  S
Fe91         O96   2.072       .  S
Fe91        O103   2.082       .  S
Fe91         O92   2.084       .  S
Fe91        O100   1.925       .  S
O92          C99   1.281       .  A
O93         C107   1.274       .  A
O94          C99   1.279       .  A
O95          C98   1.260       .  A
O96         C108   1.274       .  A
O97         C110   1.280       .  A
C98         O103   1.266   1_455  A
C98         C698   1.478       .  S
C99         C801   1.487       .  S
O101        C104   1.266       .  A
O102        C104   1.260       .  A
C104        C688   1.479       .  S
O105        C110   1.278       .  A
O106        C108   1.270       .  A
C107        O109   1.271       .  A
C107        C731   1.484       .  S
C108        C718   1.485       .  S
C110        C708   1.486       .  S
Fe111       O127   2.056       .  S
Fe111       O117   2.071       .  S
Fe111       O124   2.077       .  S
Fe111       O116   2.049       .  S
Fe111       O122   1.937       .  S
Fe112       O115   2.062       .  S
Fe112       O119   2.089       .  S
Fe112       O123   2.075       .  S
Fe112       O128   2.084       .  S
Fe112       O122   1.930       .  S
Fe113       O131   2.069       .  S
Fe113       O118   2.055       .  S
Fe113       O125   2.078       .  S
Fe113       O114   2.081       .  S
Fe113       O122   1.925       .  S
O114        C121   1.266       .  A
O115        C129   1.269       .  A
O116        C121   1.257       .  A
O117        C120   1.280       .  A
O118        C130   1.270       .  A
O119        C132   1.268       .  A
C120        O125   1.279       .  A
C120        C661   1.479       .  S
C121        C811   1.474       .  S
O123        C126   1.277       .  A
O124        C126   1.279       .  A
C126        C761   1.486       .  S
O127        C132   1.260       .  A
O128        C130   1.276       .  A
C129        O131   1.274       .  A
C129        C671   1.483       .  S
C130        C681   1.484       .  S
C132        C648   1.483       .  S
Fe133       O149   2.066       .  S
Fe133       O139   2.054   1_655  S
Fe133       O146   2.054       .  S
Fe133       O138   2.064       .  S
Fe133       O144   1.940       .  S
Fe134       O137   2.070       .  S
Fe134       O141   2.088       .  S
Fe134       O145   2.081       .  S
Fe134       O150   2.069       .  S
Fe134       O144   1.927       .  S
Fe135       O153   2.061       .  S
Fe135       O140   2.075       .  S
Fe135       O147   2.081       .  S
Fe135       O136   2.078       .  S
Fe135       O144   1.927   1_455  S
O136        C143   1.279       .  A
O137        C151   1.273   1_655  A
O138        C143   1.278   1_655  A
O139        C142   1.258       .  A
O140        C152   1.274   1_455  A
O141        C154   1.281       .  A
C142        O147   1.266       .  A
C142        C618   1.478       .  S
C143        C778   1.481       .  S
O145        C148   1.266       .  A
O146        C148   1.259       .  A
C148        C608   1.477       .  S
O149        C154   1.278       .  A
O150        C152   1.271       .  A
C151        O153   1.270       .  A
C151        C631   1.485       .  S
C152        C638   1.487       .  S
C154        C711   1.479       .  S
Fe155       O171   2.066       .  S
Fe155       O161   2.061       .  S
Fe155       O168   2.059   1_545  S
Fe155       O160   2.065       .  S
Fe155       O166   1.944       .  S
Fe156       O159   2.079       .  S
Fe156       O163   2.086       .  S
Fe156       O167   2.090       .  S
Fe156       O172   2.067       .  S
Fe156       O166   1.929       .  S
Fe157       O175   2.065       .  S
Fe157       O162   2.073       .  S
Fe157       O169   2.080       .  S
Fe157       O158   2.086       .  S
Fe157       O166   1.928       .  S
O158        C165   1.281       .  A
O159        C173   1.276       .  A
O160        C165   1.277       .  A
O161        C164   1.260       .  A
O162        C174   1.275       .  A
O163        C176   1.280       .  A
C164        O169   1.265       .  A
C164        C578   1.474       .  S
C165        C838   1.485       .  S
O167        C170   1.268   1_545  A
O168        C170   1.261       .  A
C170        C588   1.486       .  S
O171        C176   1.277       .  A
O172        C174   1.270       .  A
C173        O175   1.270       .  A
C173        C651   1.488       .  S
C174        C598   1.488       .  S
C176        C888   1.486       .  S
Fe177       O193   2.054       .  S
Fe177       O183   2.064       .  S
Fe177       O190   2.061       .  S
Fe177       O182   2.053       .  S
Fe177       O188   1.939       .  S
Fe178       O181   2.059       .  S
Fe178       O185   2.087       .  S
Fe178       O189   2.087       .  S
Fe178       O194   2.072       .  S
Fe178       O188   1.929       .  S
Fe179       O197   2.077       .  S
Fe179       O184   2.070       .  S
Fe179       O191   2.087       .  S
Fe179       O180   2.087       .  S
Fe179       O188   1.932       .  S
O180        C187   1.268       .  A
O181        C195   1.269       .  A
O182        C187   1.260       .  A
O183        C186   1.277       .  A
O184        C196   1.272       .  A
O185        C198   1.266       .  A
C186        O191   1.281       .  A
C186        C748   1.474       .  S
C187        C601   1.483       .  S
O189        C192   1.281       .  A
O190        C192   1.277       .  A
C192        C658   1.484       .  S
O193        C198   1.258       .  A
O194        C196   1.274       .  A
C195        O197   1.275       .  A
C195        C621   1.485       .  S
C196        C701   1.484       .  S
C198        C568   1.480       .  S
Fe199       O215   2.053   1_655  S
Fe199       O205   2.064       .  S
Fe199       O212   2.062   1_655  S
Fe199       O204   2.054       .  S
Fe199       O210   1.940   1_655  S
Fe200       O203   2.064       .  S
Fe200       O207   2.086       .  S
Fe200       O211   2.080       .  S
Fe200       O216   2.077       .  S
Fe200       O210   1.928       .  S
Fe201       O219   2.068       .  S
Fe201       O206   2.072       .  S
Fe201       O213   2.092       .  S
Fe201       O202   2.081       .  S
Fe201       O210   1.923       .  S
O202        C209   1.265   1_455  A
O203        C217   1.270       .  A
O204        C209   1.259       .  A
O205        C208   1.278   1_655  A
O206        C218   1.272       .  A
O207        C220   1.267       .  A
C208        O213   1.282       .  A
C208        C561   1.476   1_455  S
C209        C538   1.476       .  S
O211        C214   1.280       .  A
O212        C214   1.277       .  A
C214        C551   1.480       .  S
O215        C220   1.259       .  A
O216        C218   1.275       .  A
C217        O219   1.274       .  A
C217        C831   1.483       .  S
C218        C591   1.490       .  S
C220        C628   1.483       .  S
Fe221       O237   2.057   1_565  S
Fe221       O227   2.065       .  S
Fe221       O234   2.065       .  S
Fe221       O226   2.057       .  S
Fe221       O232   1.939       .  S
Fe222       O225   2.067       .  S
Fe222       O229   2.079       .  S
Fe222       O233   2.084       .  S
Fe222       O238   2.069       .  S
Fe222       O232   1.930       .  S
Fe223       O241   2.073       .  S
Fe223       O228   2.060       .  S
Fe223       O235   2.085       .  S
Fe223       O224   2.080       .  S
Fe223       O232   1.930       .  S
O224        C231   1.266       .  A
O225        C239   1.270       .  A
O226        C231   1.261       .  A
O227        C230   1.277       .  A
O228        C240   1.269       .  A
O229        C242   1.267   1_565  A
C230        O235   1.279       .  A
C230        C518   1.475       .  S
C231        C871   1.477       .  S
O233        C236   1.279       .  A
O234        C236   1.276       .  A
C236        C528   1.484       .  S
O237        C242   1.261       .  A
O238        C240   1.274       .  A
C239        O241   1.275       .  A
C239        C498   1.488       .  S
C240        C508   1.482       .  S
C242        C728   1.480       .  S
Fe243       O259   2.053   1_655  S
Fe243       O249   2.063   1_655  S
Fe243       O256   2.062       .  S
Fe243       O248   2.055       .  S
Fe243       O254   1.942       .  S
Fe244       O247   2.060       .  S
Fe244       O251   2.088       .  S
Fe244       O255   2.081       .  S
Fe244       O260   2.077       .  S
Fe244       O254   1.924   1_455  S
Fe245       O263   2.085       .  S
Fe245       O250   2.067       .  S
Fe245       O257   2.082       .  S
Fe245       O246   2.088       .  S
Fe245       O254   1.924       .  S
O246        C253   1.268       .  A
O247        C261   1.269       .  A
O248        C253   1.259       .  A
O249        C252   1.277   1_455  A
O250        C262   1.272       .  A
O251        C264   1.267       .  A
C252        O257   1.281       .  A
C252        C488   1.483       .  S
C253        C481   1.482       .  S
O255        C258   1.279       .  A
O256        C258   1.277   1_655  A
C258        C548   1.477       .  S
O259        C264   1.258       .  A
O260        C262   1.275   1_455  A
C261        O263   1.276   1_455  A
C261        C788   1.485       .  S
C262        C691   1.485       .  S
C264        C931   1.477       .  S
Fe265       O281   2.066       .  S
Fe265       O271   2.052       .  S
Fe265       O278   2.053       .  S
Fe265       O270   2.063       .  S
Fe265       O276   1.938       .  S
Fe266       O269   2.069       .  S
Fe266       O273   2.084       .  S
Fe266       O277   2.083       .  S
Fe266       O282   2.064       .  S
Fe266       O276   1.924       .  S
Fe267       O285   2.067       .  S
Fe267       O272   2.077       .  S
Fe267       O279   2.090       .  S
Fe267       O268   2.084       .  S
Fe267       O276   1.925       .  S
O268        C275   1.281       .  A
O269        C283   1.274       .  A
O270        C275   1.278       .  A
O271        C274   1.258       .  A
O272        C284   1.274       .  A
O273        C286   1.281       .  A
C274        O279   1.268       .  A
C274        C501   1.484       .  S
C275        C468   1.480       .  S
O277        C280   1.265       .  A
O278        C280   1.258       .  A
C280        C668   1.479       .  S
O281        C286   1.279       .  A
O282        C284   1.271       .  A
C283        O285   1.272       .  A
C283        C541   1.482       .  S
C284        C478   1.487       .  S
C286        C458   1.484       .  S
Fe287       O303   2.067       .  S
Fe287       O293   2.050       .  S
Fe287       O300   2.059       .  S
Fe287       O292   2.062       .  S
Fe287       O298   1.940       .  S
Fe288       O291   2.074       .  S
Fe288       O295   2.078       .  S
Fe288       O299   2.083       .  S
Fe288       O304   2.060       .  S
Fe288       O298   1.922       .  S
Fe289       O307   2.069       .  S
Fe289       O294   2.077       .  S
Fe289       O301   2.081       .  S
Fe289       O290   2.083       .  S
Fe289       O298   1.928       .  S
O290        C297   1.279       .  A
O291        C305   1.275       .  A
O292        C297   1.276       .  A
O293        C296   1.259       .  A
O294        C306   1.275       .  A
O295        C308   1.279       .  A
C296        O301   1.267       .  A
C296        C511   1.476       .  S
C297        C448   1.473       .  S
O299        C302   1.267       .  A
O300        C302   1.261       .  A
C302        C441   1.476       .  S
O303        C308   1.276       .  A
O304        C306   1.269       .  A
C305        O307   1.271       .  A
C305        C571   1.486       .  S
C306        C738   1.483       .  S
C308        C461   1.480       .  S
Fe309       O325   2.059       .  S
Fe309       O315   2.062   1_565  S
Fe309       O322   2.063   1_565  S
Fe309       O314   2.059   1_565  S
Fe309       O320   1.940   1_565  S
Fe310       O313   2.070       .  S
Fe310       O317   2.081       .  S
Fe310       O321   2.090       .  S
Fe310       O326   2.071       .  S
Fe310       O320   1.928       .  S
Fe311       O329   2.065       .  S
Fe311       O316   2.064       .  S
Fe311       O323   2.088       .  S
Fe311       O312   2.078       .  S
Fe311       O320   1.926       .  S
O312        C319   1.265       .  A
O313        C327   1.271       .  A
O314        C319   1.260       .  A
O315        C318   1.277   1_556  A
O316        C328   1.271       .  A
O317        C330   1.266   1_545  A
C318        O323   1.281   1_554  A
C318        C428   1.482       .  S
C319        C858   1.477       .  S
O321        C324   1.280       .  A
O322        C324   1.277       .  A
C324        C531   1.476   1_545  S
O325        C330   1.260       .  A
O326        C328   1.274       .  A
C327        O329   1.272       .  A
C327        C768   1.487       .  S
C328        C611   1.482       .  S
C330        C421   1.476       .  S
Fe331       O347   2.052   1_565  S
Fe331       O337   2.066       .  S
Fe331       O344   2.068       .  S
Fe331       O336   2.056       .  S
Fe331       O342   1.937       .  S
Fe332       O335   2.068       .  S
Fe332       O339   2.082       .  S
Fe332       O343   2.086       .  S
Fe332       O348   2.073       .  S
Fe332       O342   1.928   1_545  S
Fe333       O351   2.075       .  S
Fe333       O338   2.059       .  S
Fe333       O345   2.082       .  S
Fe333       O334   2.090       .  S
Fe333       O342   1.926       .  S
O334        C341   1.268       .  A
O335        C349   1.271       .  A
O336        C341   1.260       .  A
O337        C340   1.277       .  A
O338        C350   1.269       .  A
O339        C352   1.267       .  A
C340        O345   1.279       .  A
C340        C521   1.484       .  S
C341        C408   1.481       .  S
O343        C346   1.280       .  A
O344        C346   1.278   1_565  A
C346        C431   1.474       .  S
O347        C352   1.260       .  A
O348        C350   1.274   1_545  A
C349        O351   1.275   1_545  A
C349        C581   1.481       .  S
C350        C881   1.483       .  S
C352        C721   1.478       .  S
Fe353       O369   2.052   1_655  S
Fe353       O359   2.069       .  S
Fe353       O366   2.066       .  S
Fe353       O358   2.054       .  S
Fe353       O364   1.939       .  S
Fe354       O357   2.065       .  S
Fe354       O361   2.092       .  S
Fe354       O365   2.084       .  S
Fe354       O370   2.080       .  S
Fe354       O364   1.927       .  S
Fe355       O373   2.074       .  S
Fe355       O360   2.060       .  S
Fe355       O367   2.079       .  S
Fe355       O356   2.090       .  S
Fe355       O364   1.923       .  S
O356        C363   1.267       .  A
O357        C371   1.270       .  A
O358        C363   1.259       .  A
O359        C362   1.279       .  A
O360        C372   1.269       .  A
O361        C374   1.267   1_655  A
C362        O367   1.280       .  A
C362        C491   1.479   1_556  S
C363        C641   1.482       .  S
O365        C368   1.281       .  A
O366        C368   1.278       .  A
C368        C558   1.484       .  S
O369        C374   1.259       .  A
O370        C372   1.275       .  A
C371        O373   1.276       .  A
C371        C398   1.485       .  S
C372        C438   1.483       .  S
C374        C918   1.485       .  S
Fe375       O391   2.062       .  S
Fe375       O381   2.052       .  S
Fe375       O388   2.057       .  S
Fe375       O380   2.061       .  S
Fe375       O386   1.940       .  S
Fe376       O379   2.071       .  S
Fe376       O383   2.080       .  S
Fe376       O387   2.082       .  S
Fe376       O392   2.063       .  S
Fe376       O386   1.925       .  S
Fe377       O395   2.068       .  S
Fe377       O382   2.081       .  S
Fe377       O389   2.087       .  S
Fe377       O378   2.086       .  S
Fe377       O386   1.928       .  S
O378        C385   1.280       .  A
O379        C393   1.274       .  A
O380        C385   1.277       .  A
O381        C384   1.259       .  A
O382        C394   1.275       .  A
O383        C396   1.279       .  A
C384        O389   1.267       .  A
C384        C401   1.479       .  S
C385        C471   1.470       .  S
O387        C390   1.268       .  A
O388        C390   1.260       .  A
C390        C678   1.478       .  S
O391        C396   1.276       .  A
O392        C394   1.270       .  A
C393        O395   1.271       .  A
C393        C418   1.482       .  S
C394        C411   1.487       .  S
C396        C451   1.480   1_554  S
C397        C398   1.403   1_554  A
C397        C402   1.393       .  A
C397        H404   1.083       .  S
C398        C399   1.414       .  A
C399        C400   1.402   1_556  A
C399        F406   1.357       .  S
C400        C401   1.403       .  A
C400        H405   1.083       .  S
C401        C402   1.410       .  A
C402        F403   1.358       .  S
C407        C408   1.408       .  A
C407        C412   1.397       .  A
C407        H414   1.083       .  S
C408        C409   1.404       .  A
C409        C410   1.401       .  A
C409        F416   1.358       .  S
C410        C411   1.411       .  A
C410        H415   1.083       .  S
C411        C412   1.406       .  A
C412        F413   1.357       .  S
C417        C418   1.403   1_556  A
C417        C422   1.395       .  A
C417        H424   1.084       .  S
C418        C419   1.412       .  A
C419        C420   1.401   1_554  A
C419        F426   1.357       .  S
C420        C421   1.402       .  A
C420        H425   1.083   1_556  S
C421        C422   1.408       .  A
C422        F423   1.358       .  S
C427        C428   1.406       .  A
C427        C432   1.392       .  A
C427        H434   1.083       .  S
C428        C429   1.410   1_545  A
C429        C430   1.403       .  A
C429        F436   1.357       .  S
C430        C431   1.405   1_565  A
C430        H435   1.084       .  S
C431        C432   1.404       .  A
C432        F433   1.358       .  S
C437        C438   1.403       .  A
C437        C442   1.397       .  A
C437        H444   1.083       .  S
C438        C439   1.413       .  A
C439        C440   1.400       .  A
C439        F446   1.358       .  S
C440        C441   1.401       .  A
C440        H445   1.083       .  S
C441        C442   1.409       .  A
C442        F443   1.358       .  S
C447        C448   1.405       .  A
C447        C452   1.402       .  A
C447        H454   1.084       .  S
C448        C449   1.404       .  A
C449        C450   1.389       .  A
C449        F456   1.358       .  S
C450        C451   1.406       .  A
C450        H455   1.083       .  S
C451        C452   1.409       .  A
C452        F453   1.357       .  S
C457        C458   1.409       .  A
C457        C462   1.405       .  A
C457        H464   1.083       .  S
C458        C459   1.409       .  A
C459        C460   1.386       .  A
C459        F466   1.358       .  S
C460        C461   1.403       .  A
C460        H465   1.083       .  S
C461        C462   1.409       .  A
C462        F463   1.358       .  S
C467        C468   1.406       .  A
C467        C472   1.389       .  A
C467        H474   1.083       .  S
C468        C469   1.409       .  A
C469        C470   1.402       .  A
C469        F476   1.357       .  S
C470        C471   1.405       .  A
C470        H475   1.084       .  S
C471        C472   1.403       .  A
C472        F473   1.358       .  S
C477        C478   1.410       .  A
C477        C482   1.401       .  A
C477        H484   1.083       .  S
C478        C479   1.407       .  A
C479        C480   1.397       .  A
C479        F486   1.358       .  S
C480        C481   1.408       .  A
C480        H485   1.083       .  S
C481        C482   1.405       .  A
C482        F483   1.357       .  S
C487        C488   1.404       .  A
C487        C492   1.386       .  A
C487        H494   1.083       .  S
C488        C489   1.411   1_655  A
C489        C490   1.405       .  A
C489        F496   1.357       .  S
C490        C491   1.407   1_455  A
C490        H495   1.083       .  S
C491        C492   1.407       .  A
C492        F493   1.358       .  S
C497        C498   1.403       .  A
C497        C502   1.394       .  A
C497        H504   1.083       .  S
C498        C499   1.414       .  A
C499        C500   1.403       .  A
C499        F506   1.357       .  S
C500        C501   1.403       .  A
C500        H505   1.083       .  S
C501        C502   1.412       .  A
C502        F503   1.358       .  S
C507        C508   1.402       .  A
C507        C512   1.393       .  A
C507        H514   1.083       .  S
C508        C509   1.414       .  A
C509        C510   1.399       .  A
C509        F516   1.357       .  S
C510        C511   1.401       .  A
C510        H515   1.083       .  S
C511        C512   1.410       .  A
C512        F513   1.358       .  S
C517        C518   1.405       .  A
C517        C522   1.403       .  A
C517        H524   1.083   1_565  S
C518        C519   1.404       .  A
C519        C520   1.391       .  A
C519        F526   1.358       .  S
C520        C521   1.407       .  A
C520        H525   1.083       .  S
C521        C522   1.410       .  A
C522        F523   1.357   1_565  S
C527        C528   1.407       .  A
C527        C532   1.391       .  A
C527        H534   1.083       .  S
C528        C529   1.410   1_565  A
C529        C530   1.403       .  A
C529        F536   1.357       .  S
C530        C531   1.406   1_545  A
C530        H535   1.084       .  S
C531        C532   1.404       .  A
C532        F533   1.358       .  S
C537        C538   1.406       .  A
C537        C542   1.395       .  A
C537        H544   1.084       .  S
C538        C539   1.404       .  A
C539        C540   1.400       .  A
C539        F546   1.357       .  S
C540        C541   1.409       .  A
C540        H545   1.083       .  S
C541        C542   1.407       .  A
C542        F543   1.358       .  S
C547        C548   1.407   1_655  A
C547        C552   1.402       .  A
C547        H554   1.083       .  S
C548        C549   1.406       .  A
C549        C550   1.387       .  A
C549        F556   1.358       .  S
C550        C551   1.405       .  A
C550        H555   1.083       .  S
C551        C552   1.410   1_455  A
C552        F553   1.357       .  S
C557        C558   1.406       .  A
C557        C562   1.390       .  A
C557        H564   1.083       .  S
C558        C559   1.411   1_655  A
C559        C560   1.404       .  A
C559        F566   1.357       .  S
C560        C561   1.406   1_455  A
C560        H565   1.083       .  S
C561        C562   1.404       .  A
C562        F563   1.358       .  S
C567        C568   1.403       .  A
C567        C572   1.402       .  A
C567        H574   1.083       .  S
C568        C569   1.410       .  A
C569        C570   1.395       .  A
C569        F576   1.358       .  S
C570        C571   1.403       .  A
C570        H575   1.083       .  S
C571        C572   1.414       .  A
C572        F573   1.357       .  S
C577        C578   1.402       .  A
C577        C582   1.400       .  A
C577        H584   1.084       .  S
C578        C579   1.407       .  A
C579        C580   1.397       .  A
C579        F586   1.358       .  S
C580        C581   1.403       .  A
C580        H585   1.084       .  S
C581        C582   1.411       .  A
C582        F583   1.358       .  S
C587        C588   1.408       .  A
C587        C592   1.397       .  A
C587        H594   1.083       .  S
C588        C589   1.406       .  A
C589        C590   1.403       .  A
C589        F596   1.357       .  S
C590        C591   1.411       .  A
C590        H595   1.083       .  S
C591        C592   1.408       .  A
C592        F593   1.358       .  S
C597        C598   1.403       .  A
C597        C602   1.395       .  A
C597        H604   1.083       .  S
C598        C599   1.414       .  A
C599        C600   1.402       .  A
C599        F606   1.357       .  S
C600        C601   1.403       .  A
C600        H605   1.083       .  S
C601        C602   1.411       .  A
C602        F603   1.358       .  S
C607        C608   1.407       .  A
C607        C612   1.395       .  A
C607        H614   1.084       .  S
C608        C609   1.404       .  A
C609        C610   1.399       .  A
C609        F616   1.357       .  S
C610        C611   1.409       .  A
C610        H615   1.083       .  S
C611        C612   1.406       .  A
C612        F613   1.358       .  S
C617        C618   1.401       .  A
C617        C622   1.399       .  A
C617        H624   1.083       .  S
C618        C619   1.411       .  A
C619        C620   1.396       .  A
C619        F626   1.358       .  S
C620        C621   1.403       .  A
C620        H625   1.083       .  S
C621        C622   1.413       .  A
C622        F623   1.357       .  S
C627        C628   1.408       .  A
C627        C632   1.393       .  A
C627        H634   1.083   1_455  S
C628        C629   1.405       .  A
C629        C630   1.401       .  A
C629        F636   1.357       .  S
C630        C631   1.411       .  A
C630        H635   1.083       .  S
C631        C632   1.406       .  A
C632        F633   1.358   1_455  S
C637        C638   1.410       .  A
C637        C642   1.402       .  A
C637        H644   1.083       .  S
C638        C639   1.407       .  A
C639        C640   1.396       .  A
C639        F646   1.358   1_655  S
C640        C641   1.408       .  A
C640        H645   1.083       .  S
C641        C642   1.405       .  A
C642        F643   1.357       .  S
C647        C648   1.402       .  A
C647        C652   1.402       .  A
C647        H654   1.083       .  S
C648        C649   1.411       .  A
C649        C650   1.396       .  A
C649        F656   1.358       .  S
C650        C651   1.403       .  A
C650        H655   1.083       .  S
C651        C652   1.415       .  A
C652        F653   1.357       .  S
C657        C658   1.405       .  A
C657        C662   1.391       .  A
C657        H664   1.083       .  S
C658        C659   1.411       .  A
C659        C660   1.402       .  A
C659        F666   1.357       .  S
C660        C661   1.405       .  A
C660        H665   1.083       .  S
C661        C662   1.408       .  A
C662        F663   1.358       .  S
C667        C668   1.403       .  A
C667        C672   1.401       .  A
C667        H674   1.083       .  S
C668        C669   1.410       .  A
C669        C670   1.392       .  A
C669        F676   1.358       .  S
C670        C671   1.402       .  A
C670        H675   1.083       .  S
C671        C672   1.413       .  A
C672        F673   1.357       .  S
C677        C678   1.409       .  A
C677        C682   1.398       .  A
C677        H684   1.083       .  S
C678        C679   1.403       .  A
C679        C680   1.398       .  A
C679        F686   1.357       .  S
C680        C681   1.410       .  A
C680        H685   1.083       .  S
C681        C682   1.406       .  A
C682        F683   1.358       .  S
C687        C688   1.407       .  A
C687        C692   1.397       .  A
C687        H694   1.083       .  S
C688        C689   1.405       .  A
C689        C690   1.401       .  A
C689        F696   1.357       .  S
C690        C691   1.410       .  A
C690        H695   1.083       .  S
C691        C692   1.407       .  A
C692        F693   1.358   1_655  S
C697        C698   1.406       .  A
C697        C702   1.396       .  A
C697        H704   1.083       .  S
C698        C699   1.405       .  A
C699        C700   1.401       .  A
C699        F706   1.357       .  S
C700        C701   1.409       .  A
C700        H705   1.083       .  S
C701        C702   1.407       .  A
C702        F703   1.358       .  S
C707        C708   1.407       .  A
C707        C712   1.391       .  A
C707        H714   1.083       .  S
C708        C709   1.411   1_655  A
C709        C710   1.404       .  A
C709        F716   1.357       .  S
C710        C711   1.406   1_455  A
C710        H715   1.083       .  S
C711        C712   1.405       .  A
C712        F713   1.358       .  S
C717        C718   1.403       .  A
C717        C722   1.394       .  A
C717        H724   1.083       .  S
C718        C719   1.414       .  A
C719        C720   1.401       .  A
C719        F726   1.357       .  S
C720        C721   1.402       .  A
C720        H725   1.083       .  S
C721        C722   1.410       .  A
C722        F723   1.358       .  S
C727        C728   1.407       .  A
C727        C732   1.394       .  A
C727        H734   1.083       .  S
C728        C729   1.405       .  A
C729        C730   1.401       .  A
C729        F736   1.357       .  S
C730        C731   1.410       .  A
C730        H735   1.083       .  S
C731        C732   1.407       .  A
C732        F733   1.358       .  S
C737        C738   1.403       .  A
C737        C742   1.397       .  A
C737        H744   1.083       .  S
C738        C739   1.413       .  A
C739        C740   1.399       .  A
C739        F746   1.358       .  S
C740        C741   1.401       .  A
C740        H745   1.083       .  S
C741        C742   1.409       .  A
C742        F743   1.358       .  S
C747        C748   1.400       .  A
C747        C752   1.390       .  A
C747        H754   1.084       .  S
C748        C749   1.407       .  A
C749        C750   1.403       .  A
C749        F756   1.358       .  S
C750        C751   1.408       .  A
C750        H755   1.083       .  S
C751        C752   1.411       .  A
C752        F753   1.358       .  S
C757        C758   1.402       .  A
C757        C762   1.386       .  A
C757        H764   1.083       .  S
C758        C759   1.410       .  A
C759        C760   1.406       .  A
C759        F766   1.357       .  S
C760        C761   1.408       .  A
C760        H765   1.083       .  S
C761        C762   1.411       .  A
C762        F763   1.358       .  S
C767        C768   1.411       .  A
C767        C772   1.403   1_556  A
C767        H774   1.083       .  S
C768        C769   1.407   1_556  A
C769        C770   1.393       .  A
C769        F776   1.358       .  S
C770        C771   1.407       .  A
C770        H775   1.083       .  S
C771        C772   1.406       .  A
C772        F773   1.357       .  S
C777        C778   1.408   1_655  A
C777        C782   1.402       .  A
C777        H784   1.083       .  S
C778        C779   1.410       .  A
C779        C780   1.386       .  A
C779        F786   1.358       .  S
C780        C781   1.402       .  A
C780        H785   1.083       .  S
C781        C782   1.408   1_455  A
C782        F783   1.357       .  S
C787        C788   1.403       .  A
C787        C792   1.399       .  A
C787        H794   1.083   1_455  S
C788        C789   1.413       .  A
C789        C790   1.400       .  A
C789        F796   1.357       .  S
C790        C791   1.401       .  A
C790        H795   1.083       .  S
C791        C792   1.410       .  A
C792        F793   1.358       .  S
C797        C798   1.408       .  A
C797        C802   1.406       .  A
C797        H804   1.083       .  S
C798        C799   1.407   1_455  A
C799        C800   1.388       .  A
C799        F806   1.358       .  S
C800        C801   1.406       .  A
C800        H805   1.083       .  S
C801        C802   1.411   1_655  A
C802        F803   1.357       .  S
C807        C808   1.402       .  A
C807        C812   1.395       .  A
C807        H814   1.083       .  S
C808        C809   1.413       .  A
C809        C810   1.397       .  A
C809        F816   1.357       .  S
C810        C811   1.400       .  A
C810        H815   1.083       .  S
C811        C812   1.410       .  A
C812        F813   1.358       .  S
C817        C818   1.403   1_556  A
C817        C822   1.397       .  A
C817        H824   1.083       .  S
C818        C819   1.414       .  A
C819        C820   1.404   1_554  A
C819        F826   1.357       .  S
C820        C821   1.403       .  A
C820        H825   1.083       .  S
C821        C822   1.410       .  A
C822        F823   1.358       .  S
C827        C828   1.402       .  A
C827        C832   1.401       .  A
C827        H834   1.083       .  S
C828        C829   1.409       .  A
C829        C830   1.393       .  A
C829        F836   1.358       .  S
C830        C831   1.403       .  A
C830        H835   1.083       .  S
C831        C832   1.413       .  A
C832        F833   1.357       .  S
C837        C838   1.404       .  A
C837        C842   1.388       .  A
C837        H844   1.083       .  S
C838        C839   1.411   1_545  A
C839        C840   1.405       .  A
C839        F846   1.357       .  S
C840        C841   1.407   1_565  A
C840        H845   1.083       .  S
C841        C842   1.408       .  A
C842        F843   1.358       .  S
C847        C848   1.404       .  A
C847        C852   1.402       .  A
C847        H854   1.083       .  S
C848        C849   1.410       .  A
C849        C850   1.395       .  A
C849        F856   1.358       .  S
C850        C851   1.403       .  A
C850        H855   1.083       .  S
C851        C852   1.414       .  A
C852        F853   1.357       .  S
C857        C858   1.406       .  A
C857        C862   1.397       .  A
C857        H864   1.083       .  S
C858        C859   1.404       .  A
C859        C860   1.399       .  A
C859        F866   1.358       .  S
C860        C861   1.410       .  A
C860        H865   1.083       .  S
C861        C862   1.406       .  A
C862        F863   1.357   1_545  S
C867        C868   1.403       .  A
C867        C872   1.392       .  A
C867        H874   1.083       .  S
C868        C869   1.412       .  A
C869        C870   1.403       .  A
C869        F876   1.358       .  S
C870        C871   1.404       .  A
C870        H875   1.083       .  S
C871        C872   1.407       .  A
C872        F873   1.358       .  S
C877        C878   1.401       .  A
C877        C882   1.398       .  A
C877        H884   1.083       .  S
C878        C879   1.409       .  A
C879        C880   1.395       .  A
C879        F886   1.358       .  S
C880        C881   1.403       .  A
C880        H885   1.083   1_565  S
C881        C882   1.414       .  A
C882        F883   1.357       .  S
C887        C888   1.406       .  A
C887        C892   1.391       .  A
C887        H894   1.083       .  S
C888        C889   1.411   1_545  A
C889        C890   1.404       .  A
C889        F896   1.357       .  S
C890        C891   1.407       .  A
C890        H895   1.083       .  S
C891        C892   1.407   1_565  A
C892        F893   1.358       .  S
C897        C898   1.402       .  A
C897        C902   1.401   1_554  A
C897        H904   1.083       .  S
C898        C899   1.412       .  A
C899        C900   1.398       .  A
C899        F906   1.358       .  S
C900        C901   1.404   1_554  A
C900        H905   1.083       .  S
C901        C902   1.414       .  A
C902        F903   1.357       .  S
C907        C908   1.405   1_545  A
C907        C912   1.402       .  A
C907        H914   1.084       .  S
C908        C909   1.401       .  A
C909        C910   1.389       .  A
C909        F916   1.358       .  S
C910        C911   1.406       .  A
C910        H915   1.083       .  S
C911        C912   1.407   1_565  A
C912        F913   1.357       .  S
C917        C918   1.408       .  A
C917        C922   1.394       .  A
C917        H924   1.083       .  S
C918        C919   1.406       .  A
C919        C920   1.404   1_556  A
C919        F926   1.357       .  S
C920        C921   1.411       .  A
C920        H925   1.083       .  S
C921        C922   1.408   1_554  A
C922        F923   1.357       .  S
C927        C928   1.402       .  A
C927        C932   1.395       .  A
C927        H934   1.083       .  S
C928        C929   1.413       .  A
C929        C930   1.401       .  A
C929        F936   1.358       .  S
C930        C931   1.402       .  A
C930        H935   1.083       .  S
C931        C932   1.410       .  A
C932        F933   1.358       .  S
