geometry optimzed in LAMMPS
_audit_creation_date              2020-12-01 
_audit_creation_method            'lammps2cif' 
_symmetry_space_group_name_H-M    'P1' 
_symmetry_Int_Tables_number       1 
_symmetry_cell_setting            triclinic 
loop_ 
_symmetry_equiv_pos_as_xyz 
  x,y,z 
_cell_length_a                    38.88457644 
_cell_length_b                    38.74422304699984 
_cell_length_c                    96.94574273369638 
_cell_angle_alpha                 89.57858990527376 
_cell_angle_beta                  90.57364046814087 
_cell_angle_gamma                 119.75553749947119 
loop_ 
_atom_site_label 
_atom_site_type_symbol 
_atom_site_fract_x 
_atom_site_fract_y 
_atom_site_fract_z 
_atom_site_charge 
In1        In  0.58251811  0.65884296  0.61350426     1.36900
C2          C  0.50617617  0.60462747  0.61184070     0.77500
O3          O  0.60752698  0.62258097  0.60470542    -0.60900
O4          O  0.60876076  0.66815292  0.59226724    -0.51900
C5          C  0.58325528  0.72753587  0.61089028     0.70200
O6          O  0.55197667  0.69433368  0.61152859    -0.46700
C7          C  0.60911819  0.65540375  0.63869926     0.74900
O8          O  0.52919279  0.61476254  0.60169003    -0.58600
O9          O  0.58358442  0.62546991  0.63221253    -0.48700
O10         O  0.52209387  0.62376223  0.62274056    -0.55000
C11         C  0.61394234  0.63859119  0.59296692     0.85100
O12         O  0.61473519  0.72563796  0.61155936    -0.56900
O13         O  0.62395150  0.68714357  0.63175029    -0.60200
In14       In  0.30137869  0.38246540  0.61414940     1.36900
C15         C  0.35697970  0.45894054  0.61279567     0.77500
O16         O  0.27631140  0.34648632  0.63362335    -0.60900
O17         O  0.33844206  0.38172647  0.63194585    -0.51900
C18         C  0.23001828  0.37626885  0.61148502     0.70200
O19         O  0.26203334  0.40900326  0.61149656    -0.46700
C20         C  0.31763172  0.35004784  0.59268653     0.74900
O21         O  0.34873385  0.43514219  0.60292334    -0.58600
O22         O  0.29523680  0.36479902  0.59210527    -0.48700
O23         O  0.33504815  0.44399791  0.62314930    -0.55000
C24         C  0.30951623  0.36005008  0.63956651     0.85100
O25         O  0.23438608  0.34625608  0.61302300    -0.56900
O26         O  0.32842256  0.34747615  0.60479071    -0.60200
In27       In  0.01961406  0.38922995  0.60823886     1.36900
C28         C  0.01857057  0.45665208  0.60511961     0.77500
O29         O  0.00921617  0.37562557  0.58576025    -0.60900
O30         O  0.95941503  0.34926774  0.59900365    -0.51900
C31         C  0.08274003  0.37958240  0.60656154     0.70200
O32         O  0.08317251  0.41159199  0.60365232    -0.46700
C33         C  0.00670287  0.38221188  0.63516835     0.74900
O34         O  0.04998697  0.45487328  0.60376589    -0.58600
O35         O  0.98909762  0.35239550  0.62728355    -0.48700
O36         O  0.98832734  0.42386564  0.60781405    -0.55000
C37         C  0.97206843  0.35592788  0.58677923     0.85100
O38         O  0.04906202  0.35146591  0.61002461    -0.56900
O39         O  0.03127758  0.41379744  0.62923976    -0.60200
In40       In  0.56590472  0.93584487  0.60903369     1.36900
C41         C  0.48891178  0.91046997  0.61000025     0.77500
O42         O  0.61058993  0.95119649  0.62620815    -0.60900
O43         O  0.57323810  0.97625580  0.62656625    -0.51900
C44         C  0.57188977  0.87073234  0.60802164     0.70200
O45         O  0.53942783  0.87003672  0.60961176    -0.46700
C46         C  0.59297662  0.98442312  0.58727961     0.74900
O47         O  0.50720500  0.91592333  0.59880222    -0.58600
O48         O  0.58576107  0.99467820  0.59868302    -0.48700
O49         O  0.50976057  0.91548204  0.62062515    -0.55000
C50         C  0.59914395  0.97151376  0.63280104     0.85100
O51         O  0.60159729  0.90515033  0.60694622    -0.56900
O52         O  0.58830818  0.94990413  0.58723980    -0.60200
In53       In  0.29643547  0.94619328  0.60977549     1.36900
C54         C  0.34606256  0.91785709  0.60981075     0.77500
O55         O  0.28999457  0.98464241  0.59332833    -0.60900
O56         O  0.34734390  0.99541044  0.59842804    -0.51900
C57         C  0.22374818  0.88750139  0.60363983     0.70200
O58         O  0.25480044  0.88599590  0.60133438    -0.46700
C59         C  0.29491783  0.96416663  0.63620694     0.74900
O60         O  0.32503708  0.91525268  0.59945266    -0.58600
O61         O  0.31167374  0.99101129  0.62716946    -0.48700
O62         O  0.34024940  0.93349653  0.62021540    -0.55000
C63         C  0.32642926  0.00338490  0.59051473     0.85100
O64         O  0.23002134  0.92035156  0.60846635    -0.56900
O65         O  0.27770082  0.92941300  0.63145186    -0.60200
In66       In  0.01186127  0.67032897  0.60945435     1.36900
C67         C  0.01668251  0.60455814  0.60775129     0.77500
O68         O  0.03160867  0.67511630  0.63129391    -0.60900
O69         O  0.97780922  0.67535308  0.62760640    -0.51900
C70         C  0.07306134  0.74226534  0.60483202     0.70200
O71         O  0.07482595  0.71069174  0.60414489    -0.46700
C72         C  0.96305230  0.65182829  0.58783017     0.74900
O73         O  0.04521570  0.63843614  0.60491942    -0.58600
O74         O  0.00018697  0.67097180  0.58689915    -0.48700
O75         O  0.98616113  0.60472022  0.61188662    -0.55000
C76         C  0.00300399  0.67717863  0.63634919     0.85100
O77         O  0.03901980  0.73706831  0.60756644    -0.56900
O78         O  0.95054584  0.64563256  0.60007662    -0.60200
C79         C  0.66378663  0.55349471  0.52466006     0.86400
C80         C  0.62620522  0.51234338  0.52492363    -0.53800
C81         C  0.59229276  0.51236063  0.52850493     0.09300
C82         C  0.59913138  0.55437019  0.53139801     0.20300
C83         C  0.65259705  0.57801918  0.51467391    -0.54500
C84         C  0.61847799  0.57865346  0.51816505     0.09400
C85         C  0.66579561  0.57197546  0.53877670    -0.54100
C86         C  0.63235005  0.57222666  0.54237483     0.10000
H87         H  0.62657189  0.48526491  0.52239030     0.14500
H88         H  0.57156416  0.55375893  0.53436828     0.00300
H89         H  0.67008757  0.59409548  0.50582664     0.14800
H90         H  0.69186691  0.58419124  0.54541812     0.14600
C91         C  0.52899848  0.70404789  0.47681391     0.86400
C92         C  0.48701631  0.66759074  0.47688523    -0.53800
C93         C  0.48487342  0.63221319  0.47385367     0.09300
C94         C  0.52584008  0.63653973  0.47086023     0.20300
C95         C  0.55204555  0.69171873  0.48708787    -0.54500
C96         C  0.55092135  0.65659603  0.48381393     0.09400
C97         C  0.54539726  0.70307418  0.46259944    -0.54100
C98         C  0.54469616  0.66852099  0.45946322     0.10000
H99         H  0.46086792  0.66992434  0.47894572     0.14500
H100        H  0.52416885  0.60780821  0.46843173     0.00300
H101        H  0.56637374  0.70743273  0.49643385     0.14800
H102        H  0.55617864  0.72800240  0.45548959     0.14600
C103        C  0.66700629  0.13894911  0.52324362     0.86400
C104        C  0.65421613  0.10644826  0.51194481    -0.53800
C105        C  0.61796653  0.07348444  0.51429230     0.09300
C106        C  0.59793422  0.07579376  0.52756062     0.20300
C107        C  0.63200022  0.14714168  0.52387098    -0.54500
C108        C  0.59580454  0.11437763  0.52631313     0.09400
C109        C  0.66461487  0.11626294  0.53663253    -0.54100
C110        C  0.62856293  0.08384989  0.53892009     0.10000
H111        H  0.67201249  0.10784946  0.50321831     0.14500
H112        H  0.56914722  0.04862896  0.52962386     0.00300
H113        H  0.63584908  0.17650487  0.52204499     0.14800
H114        H  0.68930252  0.12521749  0.54376904     0.14600
C115        C  0.52431564  0.85578621  0.47556628     0.86400
C116        C  0.54649614  0.88938769  0.48635048    -0.53800
C117        C  0.54639854  0.92431706  0.48339290     0.09300
C118        C  0.52352132  0.92149478  0.46987717     0.20300
C119        C  0.48276904  0.85134193  0.47536024    -0.54500
C120        C  0.48199389  0.88526879  0.47219632     0.09400
C121        C  0.54311850  0.87489860  0.46167421    -0.54100
C122        C  0.54336979  0.90939091  0.45873427     0.10000
H123        H  0.55809690  0.88474551  0.49591813     0.14500
H124        H  0.52269948  0.94868917  0.46686815     0.00300
H125        H  0.45611338  0.82381018  0.47796761     0.14800
H126        H  0.55639635  0.86260363  0.45489745     0.14600
C127        C  0.81704936  0.55432585  0.52207641     0.86400
C128        C  0.85223627  0.57823058  0.51206452    -0.53800
C129        C  0.88624267  0.57707851  0.51540707     0.09300
C130        C  0.88210681  0.55310814  0.52865801     0.20300
C131        C  0.81266069  0.51259112  0.52238614    -0.54500
C132        C  0.84627814  0.51152399  0.52584274     0.09400
C133        C  0.83478483  0.57248762  0.53621475    -0.54100
C134        C  0.86839119  0.57198255  0.53970158     0.10000
H135        H  0.85204145  0.59621644  0.50359321     0.14500
H136        H  0.90942163  0.55241047  0.53152146     0.00300
H137        H  0.78488186  0.48589436  0.51998581     0.14800
H138        H  0.82232405  0.58604647  0.54279801     0.14600
C139        C  0.10595150  0.70465431  0.47934220     0.86400
C140        C  0.07004643  0.69257933  0.48903791    -0.53800
C141        C  0.03715974  0.65669036  0.48579195     0.09300
C142        C  0.04305852  0.63663108  0.47310045     0.20300
C143        C  0.11220463  0.66835478  0.47997687    -0.54500
C144        C  0.07980616  0.63295942  0.47652605     0.09400
C145        C  0.08847697  0.70326549  0.46490665    -0.54100
C146        C  0.05598231  0.66806163  0.46159783     0.10000
H147        H  0.06918829  0.70991052  0.49748289     0.14500
H148        H  0.01662308  0.60785864  0.47034061     0.00300
H149        H  0.14019840  0.67069251  0.48307507     0.14800
H150        H  0.10089300  0.72842469  0.45784762     0.14600
C151        C  0.40174656  0.14339194  0.52210644     0.86400
C152        C  0.44398203  0.14891383  0.52190132    -0.53800
C153        C  0.44572140  0.11507256  0.52450813     0.09300
C154        C  0.40495194  0.07880510  0.52768064     0.20300
C155        C  0.37705474  0.10859922  0.51223617    -0.54500
C156        C  0.37873654  0.07473206  0.51504888     0.09400
C157        C  0.38709956  0.12609853  0.53661384    -0.54100
C158        C  0.38842542  0.09230543  0.53958701     0.10000
H159        H  0.47074294  0.17719064  0.52059587     0.14500
H160        H  0.40608491  0.05138112  0.53009142     0.00300
H161        H  0.35900775  0.11051388  0.50398373     0.14800
H162        H  0.37687664  0.13978432  0.54405030     0.14600
C163        C  0.26072464  0.85618470  0.47747292     0.86400
C164        C  0.26236283  0.87435229  0.46314643    -0.53800
C165        C  0.29661393  0.90891522  0.46040079     0.09300
C166        C  0.32723421  0.92143674  0.47225061     0.20300
C167        C  0.29774841  0.85143702  0.47818453    -0.54500
C168        C  0.33245702  0.88521088  0.47524974     0.09400
C169        C  0.27045313  0.89087688  0.48755501    -0.54100
C170        C  0.30550501  0.92493532  0.48486692     0.10000
H171        H  0.23824076  0.86017016  0.45576253     0.14500
H172        H  0.35573832  0.94894732  0.47028890     0.00300
H173        H  0.29643294  0.82333481  0.48049073     0.14800
H174        H  0.25155281  0.88985980  0.49582251     0.14600
C175        C  0.39654338  0.29221552  0.52395309     0.86400
C176        C  0.37293535  0.30421090  0.51402762    -0.53800
C177        C  0.37538122  0.33983321  0.51715708     0.09300
C178        C  0.40089443  0.35999408  0.53000939     0.20300
C179        C  0.43899151  0.32823568  0.52401868    -0.54500
C180        C  0.44130133  0.36373159  0.52688179     0.09400
C181        C  0.38149775  0.29369631  0.53848363    -0.54100
C182        C  0.38266234  0.32861795  0.54160724     0.10000
H183        H  0.35686567  0.28667529  0.50509488     0.14500
H184        H  0.40317559  0.38895197  0.53250606     0.00300
H185        H  0.46549395  0.32618610  0.52252772     0.14800
H186        H  0.37013130  0.26886539  0.54564649     0.14600
C187        C  0.26266651  0.44022274  0.47559267     0.86400
C188        C  0.27500460  0.42033082  0.48696147    -0.53800
C189        C  0.31024533  0.42137304  0.48460186     0.09300
C190        C  0.32991559  0.44208130  0.47096178     0.20300
C191        C  0.29862642  0.48239293  0.47385820    -0.54500
C192        C  0.33383298  0.48354723  0.47180599     0.09400
C193        C  0.26332043  0.41934401  0.46216269    -0.54100
C194        C  0.29810395  0.41967419  0.45974652     0.10000
H195        H  0.25708017  0.40618785  0.49599382     0.14500
H196        H  0.35851581  0.44322549  0.46904618     0.00300
H197        H  0.29691361  0.50945256  0.47390198     0.14800
H198        H  0.23834464  0.40539955  0.45508646     0.14600
C199        C  0.10953383  0.43914486  0.47747116     0.86400
C200        C  0.09195870  0.42683340  0.46284596    -0.53800
C201        C  0.05713832  0.42662736  0.46066730     0.09300
C202        C  0.04387139  0.44105640  0.47321187     0.20300
C203        C  0.11366543  0.48077070  0.47910813    -0.54500
C204        C  0.07941303  0.48196110  0.47691730     0.09400
C205        C  0.07540603  0.41202460  0.48724625    -0.54100
C206        C  0.04104429  0.41314425  0.48502685     0.10000
H207        H  0.10561856  0.41816941  0.45488881     0.14500
H208        H  0.01586415  0.44136285  0.47146305     0.00300
H209        H  0.14129723  0.50767377  0.48124345     0.14800
H210        H  0.07810019  0.39314223  0.49500220     0.14600
C211        C  0.82253294  0.29023258  0.52163681     0.86400
C212        C  0.81590382  0.32628198  0.52109821    -0.53800
C213        C  0.84892800  0.36217930  0.52362533     0.09300
C214        C  0.88614682  0.35892157  0.52659478     0.20300
C215        C  0.85721484  0.30111466  0.51147528    -0.54500
C216        C  0.89045951  0.33732557  0.51403553     0.09400
C217        C  0.84211383  0.29316683  0.53579997    -0.54100
C218        C  0.87480788  0.32878794  0.53839774     0.10000
H219        H  0.78694459  0.32327704  0.51926488     0.14500
H220        H  0.91287138  0.38798481  0.52884663     0.00300
H221        H  0.85779779  0.28143013  0.50381188     0.14800
H222        H  0.83148487  0.26862065  0.54309446     0.14600
In223      In  0.91266527  0.61406070  0.39053355     1.36900
C224        C  0.92503355  0.62854757  0.36375233     0.77500
O225        O  0.93964559  0.57691170  0.38537750    -0.60900
O226        O  0.87907010  0.54801630  0.39137327    -0.51900
C227        C  0.96070295  0.63899778  0.41239676     0.70200
O228        O  0.96438278  0.66246743  0.40265554    -0.46700
C229        C  0.85140632  0.62384014  0.39635461     0.74900
O230        O  0.95038442  0.65111678  0.37255469    -0.58600
O231        O  0.85152000  0.59174926  0.39825597    -0.48700
O232        O  0.89318558  0.60157528  0.36876746    -0.55000
C233        C  0.90819086  0.54447072  0.38761044     0.85100
O234        O  0.93212817  0.60431599  0.41106397    -0.56900
O235        O  0.88377173  0.65193347  0.39197794    -0.60200
In236      In  0.91707980  0.33357927  0.38872065     1.36900
C237        C  0.93346974  0.32762159  0.36252555     0.77500
O238        O  0.89085807  0.26762645  0.39233955    -0.60900
O239        O  0.85456525  0.29360347  0.39499066    -0.51900
C240        C  0.96086716  0.35722892  0.41161078     0.70200
O241        O  0.96784899  0.33936574  0.40210987    -0.46700
C242        C  0.91055797  0.39741013  0.38460453     0.74900
O243        O  0.96013882  0.34010413  0.37175770    -0.58600
O244        O  0.88145050  0.36424289  0.38794439    -0.48700
O245        O  0.89927504  0.31670488  0.36700301    -0.55000
C246        C  0.85683294  0.26227401  0.39505515     0.85100
O247        O  0.93105444  0.36112255  0.40949316    -0.56900
O248        O  0.94262211  0.39726736  0.38295406    -0.60200
In249      In  0.63758352  0.05675234  0.38855869     1.36900
C250        C  0.65286017  0.05120935  0.36231147     0.77500
O251        O  0.57379509  0.03006202  0.38312152    -0.60900
O252        O  0.60347054  0.08944337  0.39038206    -0.51900
C253        C  0.61513085  0.00642900  0.40993663     0.70200
O254        O  0.61431398  0.99496650  0.39771372    -0.46700
C255        C  0.70806536  0.11628258  0.39551997     0.74900
O256        O  0.64506822  0.02339415  0.37080393    -0.58600
O257        O  0.67680539  0.11855326  0.39558588    -0.48700
O258        O  0.65300329  0.08112394  0.36734408    -0.55000
C259        C  0.57130149  0.06002582  0.38650524     0.85100
O260        O  0.62995592  0.04348859  0.41106808    -0.56900
O261        O  0.70299174  0.08241421  0.39234642    -0.60200
In262      In  0.63315260  0.61445245  0.38892590     1.36900
C263        C  0.56696701  0.54579725  0.38627908     0.77500
O264        O  0.61234929  0.60723812  0.41038313    -0.60900
O265        O  0.62386418  0.66050765  0.40003103    -0.51900
C266        C  0.70471101  0.62636611  0.39514333     0.70200
O267        O  0.67335428  0.59385998  0.39713276    -0.46700
C268        C  0.63639980  0.62852704  0.36206272     0.74900
O269        O  0.59996896  0.54798607  0.38877936    -0.58600
O270        O  0.63423689  0.65192971  0.37062085    -0.48700
O271        O  0.56841713  0.57896379  0.38514869    -0.55000
C272        C  0.61090719  0.63892201  0.41070014     0.85100
O273        O  0.69924082  0.65377564  0.39047660    -0.56900
O274        O  0.63900750  0.60023493  0.36744946    -0.60200
In275      In  0.35065890  0.33043398  0.38852733     1.36900
C276        C  0.42018691  0.39605203  0.38660827     0.77500
O277        O  0.36387220  0.31993770  0.36742017    -0.60900
O278        O  0.31737549  0.33323530  0.36953353    -0.51900
C279        C  0.33526594  0.25713018  0.39395206     0.70200
O280        O  0.36827813  0.28754905  0.39643627    -0.46700
C281        C  0.32413140  0.35022446  0.41060917     0.74900
O282        O  0.41689693  0.36282951  0.38966362    -0.58600
O283        O  0.30737999  0.34497469  0.39892956    -0.48700
O284        O  0.38768223  0.39528403  0.38473482    -0.55000
C285        C  0.33878807  0.32653513  0.36143197     0.85100
O286        O  0.30907369  0.26432120  0.38916927    -0.56900
O287        O  0.35227702  0.34293480  0.41089216    -0.60200
In288      In  0.35236260  0.05300987  0.38895002     1.36900
C289        C  0.42246495  0.05892535  0.38611971     0.77500
O290        O  0.36222221  0.03924137  0.41032444    -0.60900
O291        O  0.30753122  0.99870956  0.40078683    -0.51900
C292        C  0.33747645  0.11055775  0.39538124     0.70200
O293        O  0.37123895  0.11379946  0.39671641    -0.46700
C294        C  0.33254233  0.04227414  0.36240068     0.74900
O295        O  0.41853621  0.08868939  0.38866840    -0.58600
O296        O  0.31733261  0.01361290  0.37087824    -0.48700
O297        O  0.39036881  0.02669967  0.38452220    -0.55000
C298        C  0.33019956  0.00690230  0.41118540     0.85100
O299        O  0.31057609  0.07686074  0.39135051    -0.56900
O300        O  0.35692880  0.07521532  0.36763876    -0.60200
In301      In  0.97841132  0.72365686  0.94346440     1.36900
C302        C  0.04469646  0.79296002  0.94426671     0.77500
O303        O  0.97294988  0.73836000  0.96494457    -0.60900
O304        O  0.97278997  0.68404558  0.96182436    -0.51900
C305        C  0.90575351  0.71067007  0.93809222     0.70200
O306        O  0.93649751  0.74430249  0.93707720    -0.46700
C307        C  0.99919385  0.69903450  0.92115554     0.74900
O308        O  0.01138544  0.78979868  0.94165210    -0.58600
O309        O  0.99872974  0.68471015  0.93298450    -0.48700
O310        O  0.04360217  0.76046706  0.94678811    -0.55000
C311        C  0.97055034  0.70756952  0.97031189     0.85100
O312        O  0.91232903  0.68280062  0.94139128    -0.56900
O313        O  0.98612436  0.72291537  0.92089053    -0.60200
In314      In  0.96845150  0.29069554  0.94188923     1.36900
C315        C  0.03201797  0.28506391  0.94766333     0.77500
O316        O  0.99926808  0.30536533  0.92167521    -0.60900
O317        O  0.97113132  0.33803895  0.92727447    -0.51900
C318        C  0.89971310  0.22778578  0.93523261     0.70200
O319        O  0.93125924  0.22652545  0.93696332    -0.46700
C320        C  0.95775582  0.30944719  0.96728800     0.74900
O321        O  0.99946690  0.25558637  0.94404628    -0.58600
O322        O  0.97668216  0.33585567  0.95831965    -0.48700
O323        O  0.03118631  0.31703965  0.94890066    -0.55000
C324        C  0.99206914  0.33268339  0.91857478     0.85100
O325        O  0.90370524  0.26208767  0.93631757    -0.56900
O326        O  0.94300726  0.27439073  0.96294933    -0.60200
In327      In  0.25108869  0.29320073  0.94411291     1.36900
C328        C  0.18201676  0.28893837  0.94793944     0.77500
O329        O  0.24627666  0.27808610  0.96632756    -0.60900
O330        O  0.28917878  0.33711844  0.96056499    -0.51900
C331        C  0.26048262  0.23100522  0.93925369     0.70200
O332        O  0.22808541  0.23058257  0.93765352    -0.46700
C333        C  0.27315464  0.33721807  0.92132956     0.74900
O334        O  0.18504061  0.25865779  0.94529609    -0.58600
O335        O  0.29766190  0.34250292  0.93087994    -0.48700
O336        O  0.21455179  0.32106456  0.94858076    -0.55000
C337        C  0.27167172  0.31243524  0.97016471     0.85100
O338        O  0.28901024  0.26435885  0.94277894    -0.56900
O339        O  0.23889751  0.30841085  0.92318224    -0.60200
In340      In  0.25757605  0.01185493  0.94064116     1.36900
C341        C  0.18995966  0.94379583  0.94046678     0.77500
O342        O  0.26187911  0.00762902  0.91779921    -0.60900
O343        O  0.30054164  0.99709331  0.93032691    -0.51900
C344        C  0.26101959  0.08189716  0.93790670     0.70200
O345        O  0.22941553  0.04906582  0.93706538    -0.46700
C346        C  0.27421175  0.01089108  0.96730089     0.74900
O347        O  0.19181718  0.97678492  0.93814319    -0.58600
O348        O  0.30144271  0.02492192  0.95840305    -0.48700
O349        O  0.22309031  0.94590863  0.94246647    -0.55000
C350        C  0.28779679  0.99722961  0.91830174     0.85100
O351        O  0.29156912  0.07893289  0.93999864    -0.56900
O352        O  0.24009872  0.99924027  0.96249137    -0.60200
In353      In  0.69722140  0.00547694  0.94210000     1.36900
C354        C  0.69970192  0.93867437  0.94595455     0.77500
O355        O  0.65732586  0.00726308  0.95855183    -0.60900
O356        O  0.71691361  0.02397303  0.96360179    -0.51900
C357        C  0.75704203  0.07620401  0.93543658     0.70200
O358        O  0.75991414  0.04525044  0.93632059    -0.46700
C359        C  0.65259147  0.98562760  0.91951898     0.74900
O360        O  0.72978716  0.97100142  0.94262493    -0.58600
O361        O  0.64041444  0.99069814  0.93093632    -0.48700
O362        O  0.66894812  0.94118477  0.94755281    -0.55000
C363        C  0.68403169  0.01869674  0.96771577     0.85100
O364        O  0.72276886  0.07079455  0.93775971    -0.56900
O365        O  0.68776297  0.99237737  0.91973479    -0.60200
In366      In  0.69586623  0.71998557  0.94272409     1.36900
C367        C  0.70179145  0.79040656  0.94690463     0.77500
O368        O  0.68073220  0.73157362  0.92175715    -0.60900
O369        O  0.64311382  0.67435232  0.93011648    -0.51900
C370        C  0.75682906  0.70965312  0.93665762     0.70200
O371        O  0.75766480  0.74250496  0.93565139    -0.46700
C372        C  0.68149023  0.69780692  0.96902767     0.74900
O373        O  0.73095390  0.78673916  0.94336114    -0.58600
O374        O  0.65385750  0.68502691  0.96014953    -0.48700
O375        O  0.67025530  0.75788695  0.94871560    -0.55000
C376        C  0.64956862  0.69868337  0.92036629     0.85100
O377        O  0.72356038  0.68096920  0.94015660    -0.56900
O378        O  0.71553313  0.71961645  0.96416044    -0.60200
C379        C  0.78123691  0.77950590  0.81190771     0.86400
C380        C  0.78701793  0.82192500  0.81178452    -0.53800
C381        C  0.75399564  0.82388537  0.80829647     0.09300
C382        C  0.71746141  0.78331279  0.80546050     0.20300
C383        C  0.74587988  0.75612278  0.82179221    -0.54500
C384        C  0.71269005  0.75853441  0.81850703     0.09400
C385        C  0.76331032  0.76231274  0.79764479    -0.54100
C386        C  0.73000915  0.76391994  0.79430190     0.10000
H387        H  0.81521636  0.84834530  0.81398764     0.14500
H388        H  0.69082434  0.78546795  0.80266673     0.00300
H389        H  0.74503395  0.73751518  0.83016439     0.14800
H390        H  0.77614584  0.74987953  0.79072921     0.14600
C391        C  0.49499672  0.63684827  0.85543491     0.86400
C392        C  0.48982759  0.67393219  0.85542382    -0.53800
C393        C  0.52340062  0.70853292  0.85859805     0.09300
C394        C  0.55972749  0.70343343  0.86112031     0.20300
C395        C  0.52882290  0.64834236  0.84493229    -0.54500
C396        C  0.56290290  0.68312700  0.84801328     0.09400
C397        C  0.51354059  0.63738457  0.86955172    -0.54100
C398        C  0.54800272  0.67153525  0.87245827     0.10000
H399        H  0.46225630  0.67318423  0.85278878     0.14500
H400        H  0.58695756  0.73201694  0.86337313     0.00300
H401        H  0.52629264  0.63123062  0.83584267     0.14800
H402        H  0.50007176  0.61237847  0.87662803     0.14600
C403        C  0.78796294  0.04759986  0.80481504     0.86400
C404        C  0.75335527  0.03767976  0.81493992    -0.53800
C405        C  0.71981058  0.00206507  0.81226313     0.09300
C406        C  0.72359898  0.97992106  0.79985435     0.20300
C407        C  0.79352535  0.01092532  0.80575120    -0.54500
C408        C  0.76007638  0.97576502  0.80304964     0.09400
C409        C  0.76933962  0.04501037  0.79051164    -0.54100
C410        C  0.73554253  0.00995261  0.78792050     0.10000
H411        H  0.75454978  0.05580863  0.82355689     0.14500
H412        H  0.69635776  0.95108380  0.79780650     0.00300
H413        H  0.82149332  0.01262535  0.80846739     0.14800
H414        H  0.78219145  0.06908218  0.78304413     0.14600
C415        C  0.50801433  0.90925256  0.85233078     0.86400
C416        C  0.54171379  0.92909545  0.84153881    -0.53800
C417        C  0.57463021  0.92568690  0.84450392     0.09300
C418        C  0.57068340  0.90257022  0.85795757     0.20300
C419        C  0.50009632  0.86612380  0.85298013    -0.54500
C420        C  0.53243547  0.86254228  0.85602520     0.09400
C421        C  0.52877606  0.92804148  0.86608232    -0.54100
C422        C  0.56143686  0.92485649  0.86904317     0.10000
H423        H  0.54050634  0.94358020  0.83219794     0.14500
H424        H  0.59663312  0.89925984  0.86067317     0.00300
H425        H  0.47109959  0.84037149  0.85113970     0.14800
H426        H  0.51847994  0.94313423  0.87288756     0.14600
C427        C  0.93557616  0.78171575  0.81180121     0.86400
C428        C  0.94682586  0.75955508  0.82282909    -0.53800
C429        C  0.98199665  0.76058803  0.82022168     0.09300
C430        C  0.00239839  0.78324637  0.80695099     0.20300
C431        C  0.97209894  0.82369414  0.81148296    -0.54500
C432        C  0.00692462  0.82458135  0.80885742     0.09400
C433        C  0.93645592  0.76235741  0.79810739    -0.54100
C434        C  0.97116943  0.76306028  0.79551359     0.10000
H435        H  0.93005836  0.74548217  0.83203212     0.14500
H436        H  0.03090462  0.78432759  0.80478519     0.00300
H437        H  0.97040482  0.85053318  0.81306565     0.14800
H438        H  0.91134043  0.74892169  0.79104626     0.14600
C439        C  0.08617104  0.64323481  0.85498614     0.86400
C440        C  0.06172622  0.65633299  0.84574909    -0.53800
C441        C  0.06616295  0.69271700  0.84921080     0.09300
C442        C  0.09388983  0.71216949  0.86164060     0.20300
C443        C  0.12894670  0.67828439  0.85432087    -0.54500
C444        C  0.13320463  0.71441514  0.85766192     0.09400
C445        C  0.07188134  0.64502803  0.86957610    -0.54100
C446        C  0.07618463  0.68077939  0.87314640     0.10000
H447        H  0.04115078  0.63859980  0.83775856     0.14500
H448        H  0.09687030  0.74112404  0.86464754     0.00300
H449        H  0.15388804  0.67441479  0.85167227     0.14800
H450        H  0.05718731  0.61910631  0.87624335     0.14600
C451        C  0.93861789  0.20295420  0.80706210     0.86400
C452        C  0.97496881  0.19724067  0.80855576    -0.53800
C453        C  0.01063920  0.23050741  0.80610557     0.09300
C454        C  0.00687915  0.26718855  0.80236362     0.20300
C455        C  0.94803259  0.23837982  0.81674992    -0.54500
C456        C  0.98399758  0.27173522  0.81439346     0.09400
C457        C  0.94240598  0.22110202  0.79258450    -0.54100
C458        C  0.97776277  0.25431064  0.79014235     0.10000
H459        H  0.97249306  0.16883392  0.81125703     0.14500
H460        H  0.03562072  0.29421714  0.80012994     0.00300
H461        H  0.92825925  0.23925324  0.82422256     0.14800
H462        H  0.91853424  0.20926951  0.78500297     0.14600
C463        C  0.07945855  0.48644156  0.85438058     0.86400
C464        C  0.12145448  0.49210361  0.85415448    -0.53800
C465        C  0.12354307  0.45839405  0.85638553     0.09300
C466        C  0.08249627  0.42117791  0.85822573     0.20300
C467        C  0.05669927  0.45422688  0.84326306    -0.54500
C468        C  0.05831403  0.41985680  0.84533211     0.09400
C469        C  0.06082724  0.46451415  0.86795757    -0.54100
C470        C  0.06276170  0.43073632  0.87011827     0.10000
H471        H  0.14721242  0.52067842  0.85190644     0.14500
H472        H  0.08367838  0.39344684  0.85988808     0.00300
H473        H  0.03913842  0.45691292  0.83504133     0.14800
H474        H  0.04696981  0.47491222  0.87525352     0.14600
C475        C  0.19998196  0.19386135  0.81100623     0.86400
C476        C  0.21532905  0.21152679  0.79657361    -0.53800
C477        C  0.21471815  0.24571431  0.79375037     0.09300
C478        C  0.19769535  0.25900841  0.80547122     0.20300
C479        C  0.22464161  0.22848667  0.82099801    -0.54500
C480        C  0.22342003  0.26265435  0.81814151     0.09400
C481        C  0.15798174  0.18889386  0.81111353    -0.54100
C482        C  0.15669360  0.22285553  0.80828137     0.10000
H483        H  0.22625940  0.19838628  0.78918254     0.14500
H484        H  0.19685645  0.28666769  0.80312826     0.00300
H485        H  0.24250044  0.22638548  0.82928171     0.14800
H486        H  0.13109347  0.16096216  0.81263535     0.14600
C487        C  0.34315939  0.48310407  0.85478645     0.86400
C488        C  0.33552091  0.44829787  0.84501742    -0.53800
C489        C  0.30022823  0.41382314  0.84743297     0.09300
C490        C  0.27650260  0.41748643  0.85943340     0.20300
C491        C  0.30582932  0.48679472  0.85277202    -0.54500
C492        C  0.27096677  0.45302196  0.85554384     0.09400
C493        C  0.33987147  0.46579454  0.86929189    -0.54100
C494        C  0.30561144  0.43135928  0.87167034     0.10000
H495        H  0.35567688  0.45032578  0.83701958     0.14500
H496        H  0.24831516  0.38993763  0.86173045     0.00300
H497        H  0.30696512  0.51427724  0.84959133     0.14800
H498        H  0.36332176  0.47936349  0.87698911     0.14600
C499        C  0.20227443  0.04322510  0.80814665     0.86400
C500        C  0.15982330  0.00721484  0.80817220    -0.53800
C501        C  0.15736453  0.97170085  0.80519063     0.09300
C502        C  0.19782095  0.97518065  0.80229076     0.20300
C503        C  0.22602589  0.03134873  0.81807251    -0.54500
C504        C  0.22341124  0.99554149  0.81510400     0.09400
C505        C  0.21727221  0.04147431  0.79364488    -0.54100
C506        C  0.21600044  0.00643829  0.79070622     0.10000
H507        H  0.13332744  0.00907150  0.80995927     0.14500
H508        H  0.19622404  0.94647919  0.79982680     0.00300
H509        H  0.24330795  0.04968223  0.82669618     0.14800
H510        H  0.22957325  0.06640168  0.78652419     0.14600
C511        C  0.35401141  0.90857594  0.85419207     0.86400
C512        C  0.31765656  0.86639769  0.85431694    -0.53800
C513        C  0.28268022  0.86472100  0.85738324     0.09300
C514        C  0.28697261  0.90598409  0.85964596     0.20300
C515        C  0.34207487  0.93108361  0.84352319    -0.54500
C516        C  0.30679048  0.92965144  0.84643661     0.09400
C517        C  0.35342658  0.92718123  0.86809140    -0.54100
C518        C  0.31861634  0.92589058  0.87101433     0.10000
H519        H  0.31954501  0.83991355  0.85216937     0.14500
H520        H  0.25858299  0.90487616  0.86204177     0.00300
H521        H  0.35854202  0.94548769  0.83429990     0.14800
H522        H  0.37929372  0.94174145  0.87477949     0.14600
In523      In  0.03700631  0.40230635  0.72013161     1.36900
C524        C  0.10867529  0.40987551  0.71897237     0.77500
O525        O  0.02051308  0.38838459  0.74237342    -0.60900
O526        O  0.00847208  0.34033691  0.72927575    -0.51900
C527        C  0.02844366  0.46516029  0.72444866     0.70200
O528        O  0.06144729  0.46630797  0.72455929    -0.46700
C529        C  0.01283088  0.38988082  0.69408568     0.74900
O530        O  0.10188911  0.43341064  0.72577336    -0.58600
O531        O  0.99306271  0.36533843  0.70347520    -0.48700
O532        O  0.07879274  0.38302104  0.71284712    -0.55000
C533        C  0.00837699  0.35176225  0.74139599     0.85100
O534        O  0.99897854  0.43084717  0.72246705    -0.56900
O535        O  0.04355151  0.42050862  0.69819158    -0.60200
In536      In  0.31410486  0.39205465  0.72399013     1.36900
C537        C  0.25378749  0.40393858  0.71903285     0.77500
O538        O  0.34033119  0.40693633  0.70283661    -0.60900
O539        O  0.30059081  0.34637870  0.70733568    -0.51900
C540        C  0.38329849  0.45410310  0.73080191     0.70200
O541        O  0.35189061  0.45569344  0.72940397    -0.46700
C542        C  0.28844603  0.34528911  0.74617345     0.74900
O543        O  0.28574149  0.43009781  0.72444200    -0.58600
O544        O  0.31136798  0.34269305  0.73763054    -0.48700
O545        O  0.25360202  0.37245911  0.71570971    -0.55000
C546        C  0.32168397  0.37181123  0.69840941     0.85100
O547        O  0.37913272  0.41987297  0.72916573    -0.56900
O548        O  0.28079175  0.37253362  0.74359908    -0.60200
In549      In  0.58972717  0.67246037  0.72228998     1.36900
C550        C  0.57826879  0.73177272  0.71466838     0.77500
O551        O  0.60956840  0.70803268  0.74164771    -0.60900
O552        O  0.63915153  0.67678394  0.73617146    -0.51900
C553        C  0.52981106  0.60238211  0.72968954     0.70200
O554        O  0.52768023  0.63382986  0.72961495    -0.46700
C555        C  0.60695126  0.65851179  0.69726747     0.74900
O556        O  0.55138072  0.70023361  0.72007139    -0.58600
O557        O  0.63380147  0.67918301  0.70592112    -0.48700
O558        O  0.61067257  0.73236399  0.71298270    -0.55000
C559        C  0.63652542  0.70020502  0.74452107     0.85100
O560        O  0.56362148  0.60748472  0.72685696    -0.56900
O561        O  0.57220465  0.64450716  0.70166924    -0.60200
In562      In  0.58989648  0.95112818  0.71680839     1.36900
C563        C  0.57596410  0.87817133  0.71191298     0.77500
O564        O  0.57279191  0.96313797  0.69615458    -0.60900
O565        O  0.63336754  0.98088566  0.69943101    -0.51900
C566        C  0.53098384  0.96296184  0.72356866     0.70200
O567        O  0.52823437  0.92914951  0.72383765    -0.46700
C568        C  0.63731729  0.97298017  0.73887257     0.74900
O569        O  0.55007609  0.88507811  0.71681335    -0.58600
O570        O  0.64137645  0.99746524  0.72948975    -0.48700
O571        O  0.60819456  0.90884312  0.70894417    -0.55000
C572        C  0.60695381  0.97820913  0.69111244     0.85100
O573        O  0.56472560  0.99132981  0.72039825    -0.56900
O574        O  0.60852661  0.93866346  0.73709936    -0.60200
In575      In  0.31286102  0.95549798  0.72199300     1.36900
C576        C  0.24576178  0.88761900  0.72231536     0.77500
O577        O  0.30749330  0.95917923  0.74473089    -0.60900
O578        O  0.29524458  0.99669196  0.73214849    -0.51900
C579        C  0.38482073  0.96540619  0.72514365     0.70200
O580        O  0.35386373  0.93288763  0.72758066    -0.46700
C581        C  0.30980163  0.96825619  0.69522601     0.74900
O582        O  0.27877870  0.88933542  0.72419482    -0.58600
O583        O  0.31974862  0.99601404  0.70387587    -0.48700
O584        O  0.24777598  0.92075245  0.72027214    -0.55000
C585        C  0.29493385  0.98347353  0.74413514     0.85100
O586        O  0.37891974  0.99349251  0.72160340    -0.56900
O587        O  0.30431878  0.93590277  0.70026808    -0.60200
In588      In  0.02300345  0.67979848  0.72263179     1.36900
C589        C  0.09269022  0.74503213  0.72303204     0.77500
O590        O  0.04088089  0.69377472  0.70082531    -0.60900
O591        O  0.97926678  0.66451547  0.70457349    -0.51900
C592        C  0.01830599  0.60944274  0.72568220     0.70200
O593        O  0.04992039  0.64214672  0.72695166    -0.46700
C594        C  0.99603841  0.69818820  0.74507975     0.74900
O595        O  0.08890455  0.71092694  0.72461123    -0.58600
O596        O  0.98448303  0.70064926  0.73307262    -0.48700
O597        O  0.06053582  0.74516695  0.72135115    -0.55000
C598        C  0.00670775  0.67955009  0.69574633     0.85100
O599        O  0.98802179  0.61267302  0.72325887    -0.56900
O600        O  0.01808209  0.68300180  0.74545403    -0.60200
In601      In  0.69073082  0.01175556  0.05315327     1.36900
C602        C  0.75883805  0.07862265  0.05505242     0.77500
O603        O  0.64970818  0.00208158  0.03487323    -0.60900
O604        O  0.71127564  0.02565277  0.03162238    -0.51900
C605        C  0.68374465  0.94012753  0.05595793     0.70200
O606        O  0.71544538  0.97222308  0.05814830    -0.46700
C607        C  0.66082858  0.02699375  0.07542236     0.74900
O608        O  0.75685181  0.04506526  0.05509127    -0.58600
O609        O  0.65013202  0.03031909  0.06336165    -0.48700
O610        O  0.72598371  0.07753135  0.05392108    -0.55000
C611        C  0.67794833  0.01553166  0.02636086     0.85100
O612        O  0.65470306  0.94459358  0.05258860    -0.56900
O613        O  0.68329292  0.01224383  0.07584897    -0.60200
In614      In  0.69547198  0.72836093  0.05433707     1.36900
C615        C  0.76348638  0.72852061  0.05627206     0.77500
O616        O  0.69062576  0.72218692  0.07713787    -0.60900
O617        O  0.65312699  0.67140100  0.06522458    -0.51900
C618        C  0.68842384  0.79287617  0.05703772     0.70200
O619        O  0.72014795  0.79243022  0.05924992    -0.46700
C620        C  0.68138036  0.70868097  0.02785021     0.74900
O621        O  0.76149712  0.75995301  0.05517257    -0.58600
O622        O  0.65411630  0.69244858  0.03667875    -0.48700
O623        O  0.73034945  0.69698151  0.05623224    -0.55000
C624        C  0.66580505  0.68556345  0.07709435     0.85100
O625        O  0.65958941  0.75961633  0.05352811    -0.56900
O626        O  0.71379763  0.73571574  0.03256781    -0.60200
In627      In  0.97640112  0.72191759  0.05682276     1.36900
C628        C  0.97190659  0.70748085  0.02984852     0.77500
O629        O  0.91070841  0.69180837  0.05624853    -0.60900
O630        O  0.94279382  0.75425106  0.05953702    -0.51900
C631        C  0.96032847  0.67778492  0.07957607     0.70200
O632        O  0.95907532  0.66356736  0.06775076    -0.46700
C633        C  0.04907864  0.78462058  0.05900690     0.74900
O634        O  0.98189152  0.68892950  0.03834642    -0.58600
O635        O  0.01789225  0.78563440  0.06161515    -0.48700
O636        O  0.96523011  0.73294699  0.03529446    -0.55000
C637        C  0.90934536  0.72320609  0.05829645     0.85100
O638        O  0.97422937  0.71484630  0.07961583    -0.56900
O639        O  0.04321813  0.75062847  0.05564950    -0.60200
In640      In  0.25623320  0.00865992  0.05256558     1.36900
C641        C  0.25177907  0.07481852  0.05131121     0.77500
O642        O  0.26578267  0.01898259  0.07527930    -0.60900
O643        O  0.31420732  0.02540150  0.06355460    -0.51900
C644        C  0.19562201  0.93566630  0.05743743     0.70200
O645        O  0.19444418  0.96720243  0.05929375    -0.46700
C646        C  0.27162356  0.00459363  0.02616005     0.74900
O647        O  0.22135733  0.04085543  0.05198243    -0.58600
O648        O  0.29636274  0.00911298  0.03552519    -0.48700
O649        O  0.28387015  0.07439205  0.05068732    -0.55000
C650        C  0.30196870  0.02919934  0.07517402     0.85100
O651        O  0.22889012  0.94133718  0.05341634    -0.56900
O652        O  0.23996108  0.00206729  0.03039797    -0.60200
In653      In  0.24628462  0.28946976  0.05457765     1.36900
C654        C  0.24456561  0.22030744  0.05236559     0.77500
O655        O  0.22897954  0.28677159  0.03254334    -0.60900
O656        O  0.28896638  0.32703317  0.03788632    -0.51900
C657        C  0.18597195  0.30197980  0.05914227     0.70200
O658        O  0.18318058  0.26815604  0.05985000    -0.46700
C659        C  0.29018479  0.31503582  0.07741881     0.74900
O660        O  0.21358315  0.22243007  0.05418667    -0.58600
O661        O  0.30067375  0.33436112  0.06622693    -0.48700
O662        O  0.27579389  0.25344200  0.05141675    -0.55000
C663        C  0.26297592  0.31219772  0.02849181     0.85100
O664        O  0.22042702  0.33009818  0.05658083    -0.56900
O665        O  0.25633807  0.28457357  0.07695579    -0.60200
In666      In  0.96868835  0.29922324  0.05268666     1.36900
C667        C  0.90494658  0.22820273  0.05431474     0.77500
O668        O  0.97197546  0.30873555  0.07542877    -0.60900
O669        O  0.94613055  0.33588851  0.06349692    -0.51900
C670        C  0.04064141  0.30780868  0.05603318     0.70200
O671        O  0.00893049  0.27571173  0.05816001    -0.46700
C672        C  0.96426751  0.31503202  0.02606833     0.74900
O673        O  0.93928774  0.23282198  0.05304308    -0.58600
O674        O  0.98042778  0.34257654  0.03488398    -0.48700
O675        O  0.90366913  0.26008729  0.05478820    -0.55000
C676        C  0.95394894  0.32814211  0.07542676     0.85100
O677        O  0.03561050  0.33609814  0.05200279    -0.56900
O678        O  0.95123396  0.28067115  0.03092184    -0.60200
C679        C  0.75488358  0.82805977  0.18832341     0.86400
C680        C  0.79696731  0.83308514  0.18844343    -0.53800
C681        C  0.79797180  0.79925584  0.19157429     0.09300
C682        C  0.75718542  0.76357183  0.19488849     0.20300
C683        C  0.72998461  0.79232805  0.17872395    -0.54500
C684        C  0.73103950  0.75850013  0.18220403     0.09400
C685        C  0.73968759  0.81204984  0.20293255    -0.54100
C686        C  0.74036288  0.77821174  0.20632727     0.10000
H687        H  0.82423626  0.86081274  0.18703813     0.14500
H688        H  0.75831627  0.73631442  0.19772869     0.00300
H689        H  0.71326768  0.79386892  0.16993664     0.14800
H690        H  0.72725254  0.82510717  0.20973313     0.14600
C691        C  0.60385488  0.54137195  0.14424280     0.86400
C692        C  0.63850969  0.53275383  0.14349055    -0.53800
C693        C  0.67468955  0.56495303  0.14073843     0.09300
C694        C  0.67304880  0.60361512  0.13874258     0.20300
C695        C  0.61828074  0.57551383  0.15503727    -0.54500
C696        C  0.65467471  0.60805899  0.15217236     0.09400
C697        C  0.60550659  0.56247890  0.13058749    -0.54100
C698        C  0.64121831  0.59478018  0.12760004     0.10000
H699        H  0.63452289  0.50321543  0.14509066     0.14500
H700        H  0.70216111  0.62954467  0.13615502     0.00300
H701        H  0.60223603  0.57548529  0.16400727     0.14800
H702        H  0.57979006  0.55276370  0.12388460     0.14600
C703        C  0.74869212  0.97569940  0.18993828     0.86400
C704        C  0.72398060  0.98728721  0.18038479    -0.53800
C705        C  0.72468157  0.02192519  0.18396257     0.09300
C706        C  0.75085191  0.04200113  0.19675432     0.20300
C707        C  0.79047574  0.01246596  0.19001173    -0.54500
C708        C  0.79176410  0.04729666  0.19322820     0.09400
C709        C  0.73391642  0.97565980  0.20459302    -0.54100
C710        C  0.73419353  0.00977281  0.20803811     0.10000
H711        H  0.70829820  0.96989969  0.17138993     0.14500
H712        H  0.75175987  0.06989793  0.19993249     0.00300
H713        H  0.81747376  0.01152076  0.18831479     0.14800
H714        H  0.72242587  0.95017193  0.21147647     0.14600
C715        C  0.60620421  0.11678921  0.14205174     0.86400
C716        C  0.61773461  0.09653224  0.15359915    -0.53800
C717        C  0.65125296  0.09468443  0.15092994     0.09300
C718        C  0.67068107  0.11375701  0.13702841     0.20300
C719        C  0.64421572  0.15778473  0.14066035    -0.54500
C720        C  0.67848075  0.15700338  0.13778217     0.09400
C721        C  0.60453383  0.09466703  0.12878357    -0.54100
C722        C  0.63787166  0.09285087  0.12605721     0.10000
H723        H  0.60303460  0.08682992  0.16342720     0.14500
H724        H  0.69646854  0.11071276  0.13462757     0.00300
H725        H  0.64367713  0.18510647  0.14242364     0.14800
H726        H  0.57876617  0.08161010  0.12200113     0.14600
C727        C  0.44984212  0.38763249  0.14166298     0.86400
C728        C  0.41682579  0.37535458  0.15262400    -0.53800
C729        C  0.38342190  0.33950382  0.14999041     0.09300
C730        C  0.38624311  0.31919979  0.13674173     0.20300
C731        C  0.45690600  0.35191737  0.14129012    -0.54500
C732        C  0.42403755  0.31632616  0.13852256     0.09400
C733        C  0.42841023  0.38589570  0.12796853    -0.54100
C734        C  0.39548612  0.35001226  0.12510243     0.10000
H735        H  0.41857435  0.39300219  0.16148214     0.14500
H736        H  0.35986452  0.28961475  0.13499575     0.00300
H737        H  0.48582659  0.35468970  0.14299819     0.14800
H738        H  0.43811622  0.41195660  0.12148687     0.14600
C739        C  0.16634721  0.23212554  0.18900984     0.86400
C740        C  0.20083205  0.25755010  0.17895267    -0.53800
C741        C  0.23586980  0.25772289  0.18177259     0.09300
C742        C  0.23297253  0.23342480  0.19489969     0.20300
C743        C  0.16359985  0.19104393  0.18882928    -0.54500
C744        C  0.19808947  0.19129097  0.19203766     0.09400
C745        C  0.18403489  0.25000432  0.20311496    -0.54100
C746        C  0.21860094  0.25104344  0.20621349     0.10000
H747        H  0.19864065  0.27567421  0.17090370     0.14500
H748        H  0.26054164  0.23324726  0.19768301     0.00300
H749        H  0.13640097  0.16390171  0.18628981     0.14800
H750        H  0.17104852  0.26258834  0.20990310     0.14600
C751        C  0.45611443  0.12371210  0.13935535     0.86400
C752        C  0.43812144  0.10829346  0.12500630    -0.53800
C753        C  0.40469362  0.11014104  0.12208023     0.09300
C754        C  0.39216711  0.12792626  0.13389026     0.20300
C755        C  0.46184312  0.16588254  0.14022520    -0.54500
C756        C  0.42878063  0.16842779  0.13729784     0.09400
C757        C  0.42103780  0.09915671  0.14935079    -0.54100
C758        C  0.38752594  0.10157135  0.14649684     0.10000
H759        H  0.44964391  0.09453161  0.11811715     0.14500
H760        H  0.36517653  0.12973378  0.13140295     0.00300
H761        H  0.49006411  0.19174538  0.14282406     0.14800
H762        H  0.42213263  0.08204752  0.15804906     0.14600
C763        C  0.17427288  0.97056836  0.18633829     0.86400
C764        C  0.16889708  0.00751387  0.18660066    -0.53800
C765        C  0.20251734  0.04269090  0.18935977     0.09300
C766        C  0.23919617  0.03801166  0.19162715     0.20300
C767        C  0.20781082  0.98232206  0.17556576    -0.54500
C768        C  0.24178217  0.01759430  0.17842292     0.09400
C769        C  0.19432979  0.97167944  0.20021858    -0.54100
C770        C  0.22808692  0.00649607  0.20304057     0.10000
H771        H  0.14047258  0.00580465  0.18481315     0.14500
H772        H  0.26641633  0.06660318  0.19394432     0.00300
H773        H  0.20526640  0.96674536  0.16612623     0.14800
H774        H  0.18260669  0.94652472  0.20727396     0.14600
C775        C  0.01672351  0.82124083  0.18963769     0.86400
C776        C  0.00481985  0.78437800  0.18026587    -0.53800
C777        C  0.96903577  0.75157342  0.18363087     0.09300
C778        C  0.94867380  0.75907936  0.19587959     0.20300
C779        C  0.98098668  0.82806780  0.18841506    -0.54500
C780        C  0.94557152  0.79582798  0.19172418     0.09400
C781        C  0.01462826  0.80495487  0.20431962    -0.54100
C782        C  0.97927114  0.77261605  0.20774236     0.10000
H783        H  0.02193740  0.78411536  0.17158732     0.14500
H784        H  0.91990386  0.73288668  0.19848745     0.00300
H785        H  0.98355980  0.85622070  0.18527577     0.14800
H786        H  0.03965120  0.81826293  0.21140850     0.14600
C787        C  0.86664319  0.53271387  0.14582490     0.86400
C788        C  0.88822797  0.56516695  0.15700659    -0.53800
C789        C  0.88762332  0.59980405  0.15439493     0.09300
C790        C  0.86573497  0.59888668  0.14087181     0.20300
C791        C  0.82489264  0.52795750  0.14495942    -0.54500
C792        C  0.82399788  0.56211628  0.14215593     0.09400
C793        C  0.88734328  0.55398970  0.13246079    -0.54100
C794        C  0.88695067  0.58831944  0.12966588     0.10000
H795        H  0.90314894  0.56204196  0.16601481     0.14500
H796        H  0.86490587  0.62666654  0.13886158     0.00300
H797        H  0.79806920  0.49951093  0.14633500     0.14800
H798        H  0.90192359  0.54278519  0.12581542     0.14600
C799        C  0.87117209  0.38098470  0.14424243     0.86400
C800        C  0.82926473  0.34421623  0.14350287    -0.53800
C801        C  0.82759185  0.30988596  0.13907519     0.09300
C802        C  0.86904727  0.31522704  0.13643097     0.20300
C803        C  0.89424829  0.36725271  0.15392394    -0.54500
C804        C  0.89269713  0.33267032  0.14980137     0.09400
C805        C  0.88936506  0.38316637  0.12995434    -0.54100
C806        C  0.88816798  0.34904810  0.12591967     0.10000
H807        H  0.80330790  0.34566002  0.14661207     0.14500
H808        H  0.86918244  0.28811608  0.13291921     0.00300
H809        H  0.91065372  0.38230038  0.16305176     0.14800
H810        H  0.90265964  0.40985195  0.12361175     0.14600
C811        C  0.01383411  0.23469637  0.18769464     0.86400
C812        C  0.97754453  0.19331779  0.19021856    -0.53800
C813        C  0.94380473  0.19351116  0.19385439     0.09300
C814        C  0.94901003  0.23545579  0.19453494     0.20300
C815        C  0.99821015  0.25277310  0.17652279    -0.54500
C816        C  0.96419730  0.25320621  0.18013465     0.09400
C817        C  0.01760191  0.25849608  0.20079763    -0.54100
C818        C  0.98418544  0.25925589  0.20438986     0.10000
H819        H  0.97813102  0.16586347  0.18868211     0.14500
H820        H  0.92180880  0.23563134  0.19768241     0.00300
H821        H  0.01078204  0.26274889  0.16644916     0.14800
H822        H  0.04496067  0.27384704  0.20672566     0.14600
In823      In  0.93493815  0.34589542  0.27631917     1.36900
C824        C  0.86486732  0.28018592  0.27492722     0.77500
O825        O  0.94020645  0.34249992  0.25368087    -0.60900
O826        O  0.97698915  0.32904682  0.26615596    -0.51900
C827        C  0.94582113  0.41891421  0.27274404     0.70200
O828        O  0.91400565  0.38752437  0.26999829    -0.46700
C829        C  0.94380283  0.34061790  0.30333727     0.74900
O830        O  0.86894741  0.31455655  0.27438027    -0.58600
O831        O  0.97176193  0.34761658  0.29515924    -0.48700
O832        O  0.89694086  0.27961030  0.27604091    -0.55000
C833        C  0.96472121  0.33024828  0.25412162     0.85100
O834        O  0.97333544  0.41312231  0.27708710    -0.56900
O835        O  0.91397089  0.33926982  0.29766256    -0.60200
In836      In  0.92543801  0.62425289  0.27724169     1.36900
C837        C  0.93538931  0.63129726  0.30440976     0.77500
O838        O  0.88879064  0.65273861  0.28103495    -0.60900
O839        O  0.86019134  0.59402514  0.27308794    -0.51900
C840        C  0.95335434  0.67381218  0.25605453     0.70200
O841        O  0.97272170  0.68132944  0.26726546    -0.46700
C842        C  0.93891303  0.56450062  0.27219406     0.74900
O843        O  0.95757671  0.65933203  0.29636809    -0.58600
O844        O  0.90528531  0.56172564  0.27128524    -0.48700
O845        O  0.90964485  0.60030576  0.29842298    -0.55000
C846        C  0.85696912  0.62351554  0.27673951     0.85100
O847        O  0.92279908  0.64008786  0.25549876    -0.56900
O848        O  0.96662721  0.59886005  0.27528558    -0.60200
In849      In  0.64357653  0.63070064  0.27526982     1.36900
C850        C  0.71138885  0.63021039  0.27542113     0.77500
O851        O  0.65146346  0.64205428  0.25289845    -0.60900
O852        O  0.66157180  0.69067968  0.26559882    -0.51900
C853        C  0.57094719  0.57226571  0.26941708     0.70200
O854        O  0.60172991  0.56955441  0.26798095    -0.46700
C855        C  0.63629281  0.63308314  0.30238811     0.74900
O856        O  0.67860930  0.59989856  0.27247751    -0.58600
O857        O  0.63739089  0.66012714  0.29463317    -0.48700
O858        O  0.70899463  0.66052862  0.27848306    -0.55000
C859        C  0.66276651  0.67855663  0.25359682     0.85100
O860        O  0.57740616  0.60588824  0.27354578    -0.56900
O861        O  0.63925410  0.60634705  0.29612439    -0.60200
In862      In  0.64678457  0.06577677  0.27675452     1.36900
C863        C  0.71464679  0.13353621  0.27429946     0.77500
O864        O  0.66127011  0.08707393  0.29831327    -0.60900
O865        O  0.64009634  0.02573833  0.29481464    -0.51900
C866        C  0.57495205  0.05839504  0.27434302     0.70200
O867        O  0.60669056  0.08934210  0.27122048    -0.46700
C868        C  0.65802592  0.03097892  0.25517982     0.74900
O869        O  0.68154657  0.13229271  0.27435525    -0.58600
O870        O  0.66148326  0.02167000  0.26741424    -0.48700
O871        O  0.71249259  0.10010200  0.27538927    -0.55000
C872        C  0.65280296  0.05386024  0.30342202     0.85100
O873        O  0.57985233  0.03024567  0.27862238    -0.56900
O874        O  0.64521226  0.05502668  0.25416557    -0.60200
In875      In  0.36049772  0.06423519  0.27710142     1.36900
C876        C  0.36516663  0.13466254  0.27466519     0.77500
O877        O  0.35343675  0.05505319  0.25429626    -0.60900
O878        O  0.30183944  0.02524101  0.26638512    -0.51900
C879        C  0.42446591  0.05602002  0.27512882     0.70200
O880        O  0.42474665  0.08835829  0.27319555    -0.46700
C881        C  0.33935564  0.04743109  0.30347701     0.74900
O882        O  0.39564989  0.13104362  0.27571579    -0.58600
O883        O  0.32809588  0.02042916  0.29448709    -0.48700
O884        O  0.33289020  0.10226289  0.27507185    -0.55000
C885        C  0.31626655  0.03394211  0.25442150     0.85100
O886        O  0.39079971  0.02714643  0.27805008    -0.56900
O887        O  0.36124117  0.08196197  0.29889313    -0.60200
In888      In  0.36401640  0.35136639  0.27490690     1.36900
C889        C  0.35335971  0.34587139  0.30204758     0.77500
O890        O  0.33707118  0.28577566  0.27430754    -0.60900
O891        O  0.39960468  0.32015831  0.27287718    -0.51900
C892        C  0.31269225  0.33118851  0.25413964     0.70200
O893        O  0.30215963  0.32937210  0.26653938    -0.46700
C894        C  0.42212644  0.42555877  0.27024154     0.74900
O895        O  0.33093270  0.35193024  0.29404126    -0.58600
O896        O  0.42338858  0.39486498  0.26683359    -0.48700
O897        O  0.38205674  0.34594245  0.29614021    -0.55000
C898        C  0.36937652  0.28591025  0.27326362     0.85100
O899        O  0.34955125  0.34745423  0.25243952    -0.56900
O900        O  0.38996775  0.41837123  0.27583347    -0.60200
C901        C  0.36690857  0.17363429  0.27334919    -0.00200
C902        C  0.40257895  0.20863546  0.27635530    -0.12100
C903        C  0.40474472  0.24587227  0.27603569     0.02000
C904        C  0.37059025  0.24839337  0.27272422    -0.00300
C905        C  0.33538706  0.21355798  0.26931614    -0.12000
C906        C  0.33328240  0.17656022  0.26947947     0.01900
H907        H  0.42868340  0.20688400  0.27925039     0.14900
H908        H  0.30912648  0.21514402  0.26649513     0.14900
C909        C  0.29624160  0.14238763  0.26538593     0.36500
C910        C  0.44192747  0.28058547  0.27959606     0.36400
N911        N  0.26660118  0.11507162  0.26205378    -0.43800
N912        N  0.47175903  0.30840782  0.28242619    -0.43800
C913        C  0.53553691  0.05599730  0.27340058    -0.00200
C914        C  0.50202002  0.02298376  0.27904745    -0.12100
C915        C  0.46513718  0.02148026  0.27948205     0.02000
C916        C  0.46123466  0.05338470  0.27406110    -0.00300
C917        C  0.49428818  0.08539184  0.26790354    -0.12000
C918        C  0.53100878  0.08712631  0.26756226     0.01900
H919        H  0.50486068  0.99880284  0.28354674     0.14900
H920        H  0.49173758  0.10987785  0.26351994     0.14900
C921        C  0.56351983  0.12195275  0.26139227     0.36500
C922        C  0.43254931  0.98782191  0.28612756     0.36400
N923        N  0.58953893  0.15002316  0.25651930    -0.43800
N924        N  0.40649323  0.96090519  0.29150656    -0.43800
C925        C  0.53061361  0.53774232  0.26727652    -0.00200
C926        C  0.49861352  0.53573147  0.27458202    -0.12100
C927        C  0.46196412  0.50027872  0.27515433     0.02000
C928        C  0.45682352  0.46604197  0.26817246    -0.00300
C929        C  0.48773770  0.46946838  0.25983455    -0.12000
C930        C  0.52424989  0.50462183  0.25933746     0.01900
H931        H  0.50292744  0.56111498  0.28058123     0.14900
H932        H  0.48400851  0.44395563  0.25405173     0.14900
C933        C  0.55486018  0.50530464  0.25081789     0.36500
C934        C  0.43139562  0.49947878  0.28369658     0.36400
N935        N  0.57929421  0.50565522  0.24399906    -0.43800
N936        N  0.40714918  0.49920485  0.29059964    -0.43800
C937        C  0.81942230  0.62460060  0.27594706    -0.00200
C938        C  0.82043569  0.66044857  0.27908614    -0.12100
C939        C  0.78610114  0.66351593  0.27863664     0.02000
C940        C  0.74927375  0.62973697  0.27534862    -0.00300
C941        C  0.74842436  0.59418876  0.27187423    -0.12000
C942        C  0.78295456  0.59144232  0.27195515     0.01900
H943        H  0.84833222  0.68651979  0.28179684     0.14900
H944        H  0.72059191  0.56824906  0.26901877     0.14900
C945        C  0.77972148  0.55427612  0.26773425     0.36500
C946        C  0.79010873  0.70197454  0.28133815     0.36400
N947        N  0.77686828  0.52447190  0.26422329    -0.43800
N948        N  0.79364664  0.73297211  0.28339065    -0.43800
C949        C  0.75294873  0.17114162  0.27357375    -0.00200
C950        C  0.75418166  0.20686643  0.27704079    -0.12100
C951        C  0.79014465  0.24275632  0.27754513     0.02000
C952        C  0.82585603  0.24338654  0.27435192    -0.00300
C953        C  0.82451633  0.20778336  0.27066931    -0.12000
C954        C  0.78863923  0.17192527  0.27019966     0.01900
H955        H  0.72708581  0.20662308  0.27978183     0.14900
H956        H  0.85166153  0.20792854  0.26807240     0.14900
C957        C  0.78948854  0.13665773  0.26598906     0.36500
C958        C  0.78956658  0.27793057  0.28203363     0.36400
N959        N  0.79012177  0.10839615  0.26259998    -0.43800
N960        N  0.78917814  0.30609838  0.28569749    -0.43800
C961        C  0.94893378  0.45859702  0.27120327    -0.00200
C962        C  0.91933646  0.46083869  0.26347862    -0.12100
C963        C  0.91676567  0.49554604  0.26309278     0.02000
C964        C  0.94447252  0.52949784  0.27048627    -0.00300
C965        C  0.97569291  0.52825752  0.27749722    -0.12000
C966        C  0.97801305  0.49316805  0.27799893     0.01900
H967        H  0.89718741  0.43486186  0.25798237     0.14900
H968        H  0.99713460  0.55408085  0.28323209     0.14900
C969        C  0.00894697  0.49292156  0.28628074     0.36500
C970        C  0.88489222  0.49505799  0.25514647     0.36400
N971        N  0.03367934  0.49275754  0.29297480    -0.43800
N972        N  0.85926492  0.49454500  0.24880635    -0.43800
C973        C  0.98226335  0.28060889  0.21686814    -0.00200
C974        C  0.99922339  0.27727852  0.22935902    -0.12100
C975        C  0.99608965  0.29494155  0.24154720     0.02000
C976        C  0.97517801  0.31614863  0.24142606    -0.00300
C977        C  0.96002765  0.32099376  0.22879806    -0.12000
C978        C  0.96361769  0.30395028  0.21663752     0.01900
H979        H  0.01411481  0.25990215  0.22970402     0.14900
H980        H  0.94466399  0.33792472  0.22839402     0.14900
C981        C  0.94898641  0.31263189  0.20412446     0.36500
C982        C  0.01390921  0.29002365  0.25398765     0.36400
N983        N  0.93698326  0.32083175  0.19442135    -0.43800
N984        N  0.02844448  0.28619483  0.26392295    -0.43800
C985        C  0.94499828  0.27132659  0.17140196    -0.00200
C986        C  0.96927084  0.30804940  0.16483155    -0.12100
C987        C  0.95297730  0.32877773  0.15795316     0.02000
C988        C  0.91160665  0.31286243  0.15743957    -0.00300
C989        C  0.88725092  0.27587754  0.16357973    -0.12000
C990        C  0.90324503  0.25499861  0.17046339     0.01900
H991        H  0.00121015  0.32134285  0.16544110     0.14900
H992        H  0.85537687  0.26333169  0.16309713     0.14900
C993        C  0.87535810  0.21673152  0.17613291     0.36500
C994        C  0.97923864  0.36613762  0.15135524     0.36400
N995        N  0.85153989  0.18641291  0.18051398    -0.43800
N996        N  0.00021742  0.39604775  0.14600532    -0.43800
C997        C  0.86540715  0.49216765  0.14694134    -0.00200
C998        C  0.88380699  0.48267746  0.15778324    -0.12100
C999        C  0.88560358  0.44701026  0.15787914     0.02000
C1000       C  0.86895574  0.41946721  0.14677217    -0.00300
C1001       C  0.84849469  0.42823468  0.13649676    -0.12000
C1002       C  0.84673303  0.46337341  0.13639267     0.01900
H1003       H  0.89736986  0.50307936  0.16626390     0.14900
H1004       H  0.83442981  0.40754389  0.12804493     0.14900
C1005       C  0.82648467  0.46945522  0.12483801     0.36500
C1006       C  0.90393325  0.44032300  0.16979594     0.36400
N1007       N  0.81045587  0.47440789  0.11555855    -0.43800
N1008       N  0.91865483  0.43620626  0.17963649    -0.43800
C1009       C  0.97317248  0.75042727  0.22107599    -0.00200
C1010       C  0.00528372  0.74814830  0.22709617    -0.12100
C1011       C  0.00040429  0.72521557  0.23897236     0.02000
C1012       C  0.96251966  0.70252563  0.24468046    -0.00300
C1013       C  0.93090270  0.70581728  0.23909386    -0.12000
C1014       C  0.93595041  0.73010806  0.22769088     0.01900
H1015       H  0.03419618  0.76331612  0.22233462     0.14900
H1016       H  0.90189984  0.68946418  0.24381214     0.14900
C1017       C  0.90234972  0.73410585  0.22356764     0.36500
C1018       C  0.03425049  0.72423007  0.24474157     0.36400
N1019       N  0.87451535  0.73618639  0.22063786    -0.43800
N1020       N  0.06152555  0.72375651  0.24940458    -0.43800
C1021       C  0.94959008  0.71221773  0.17619887    -0.00200
C1022       C  0.90807828  0.69186289  0.17468492    -0.12100
C1023       C  0.88757786  0.65429628  0.16854080     0.02000
C1024       C  0.90830266  0.63639464  0.16309463    -0.00300
C1025       C  0.94964959  0.65568759  0.16494492    -0.12000
C1026       C  0.97029218  0.69300664  0.17154942     0.01900
H1027       H  0.89106704  0.70501294  0.17843334     0.14900
H1028       H  0.96593941  0.64191187  0.16100117     0.14900
C1029       C  0.01227738  0.70989312  0.17389330     0.36500
C1030       C  0.84498903  0.63315679  0.16912053     0.36400
N1031       N  0.04593124  0.72325404  0.17581598    -0.43800
N1032       N  0.81093113  0.61589751  0.17021391    -0.43800
C1033       C  0.25102256  0.01255575  0.21609729    -0.00200
C1034       C  0.23057021  0.00145650  0.22868242    -0.12100
C1035       C  0.25066091  0.00677635  0.24128794     0.02000
C1036       C  0.29227808  0.02309576  0.24147293    -0.00300
C1037       C  0.31244952  0.03315367  0.22884323    -0.12000
C1038       C  0.29247330  0.02831059  0.21628983     0.01900
H1039       H  0.19873789  0.98942544  0.22869726     0.14900
H1040       H  0.34434364  0.04565137  0.22874439     0.14900
C1041       C  0.31571465  0.03932480  0.20387612     0.36500
C1042       C  0.22779539  0.99653364  0.25380130     0.36400
N1043       N  0.33562546  0.04880217  0.19421983    -0.43800
N1044       N  0.20932284  0.98840048  0.26379956    -0.43800
C1045       C  0.13350454  0.93141724  0.18533918    -0.00200
C1046       C  0.10526586  0.92726759  0.19521343    -0.12100
C1047       C  0.06796600  0.89318945  0.19626428     0.02000
C1048       C  0.05683971  0.86012558  0.18745874    -0.00300
C1049       C  0.08462482  0.86389474  0.17743758    -0.12000
C1050       C  0.12234273  0.89856853  0.17630515     0.01900
H1051       H  0.11274407  0.95111622  0.20251018     0.14900
H1052       H  0.07775060  0.83950984  0.17054778     0.14900
C1053       C  0.14854260  0.89743454  0.16615766     0.36500
C1054       C  0.04210069  0.89293204  0.20693419     0.36400
N1055       N  0.16849820  0.89502998  0.15787671    -0.43800
N1056       N  0.02145396  0.89270677  0.21549434    -0.43800
C1057       C  0.34969525  0.07994792  0.15450731    -0.00200
C1058       C  0.33401476  0.03933845  0.15765526    -0.12100
C1059       C  0.29827395  0.01787601  0.16496507     0.02000
C1060       C  0.27735693  0.03701548  0.16930564    -0.00300
C1061       C  0.29284216  0.07734563  0.16607615    -0.12000
C1062       C  0.32842588  0.09881972  0.15884786     0.01900
H1063       H  0.34982701  0.02431340  0.15444286     0.14900
H1064       H  0.27730466  0.09250989  0.16947281     0.14900
C1065       C  0.34297857  0.14072123  0.15685551     0.36500
C1066       C  0.28530822  0.97717612  0.16874820     0.36400
N1067       N  0.35333742  0.17417187  0.15556152    -0.43800
N1068       N  0.27513240  0.94463909  0.17187228    -0.43800
C1069       C  0.24187832  0.27250763  0.21856352    -0.00200
C1070       C  0.23093254  0.25396990  0.23149820    -0.12100
C1071       C  0.25210636  0.27355539  0.24344127     0.02000
C1072       C  0.28473434  0.31258779  0.24249371    -0.00300
C1073       C  0.29430424  0.33172072  0.22962214    -0.12000
C1074       C  0.27268109  0.31235334  0.21775505     0.01900
H1075       H  0.20627488  0.22382284  0.23221345     0.14900
H1076       H  0.31899767  0.36182577  0.22882648     0.14900
C1077       C  0.28167223  0.33457324  0.20501871     0.36500
C1078       C  0.24145671  0.25188234  0.25631976     0.36400
N1079       N  0.28875718  0.35292399  0.19492745    -0.43800
N1080       N  0.23292103  0.23433413  0.26660561    -0.43800
C1081       C  0.12552225  0.22979519  0.18699055    -0.00200
C1082       C  0.11810687  0.25071581  0.17646122    -0.12100
C1083       C  0.08265573  0.25259919  0.17585326     0.02000
C1084       C  0.05233791  0.23223803  0.18580791    -0.00300
C1085       C  0.05954490  0.21020461  0.19595103    -0.12000
C1086       C  0.09460135  0.20838087  0.19655158     0.01900
H1087       H  0.14030707  0.26707870  0.16878891     0.14900
H1088       H  0.03771565  0.19489353  0.20392664     0.14900
C1089       C  0.09838334  0.18528533  0.20764253     0.36500
C1090       C  0.08077994  0.27817495  0.16538213     0.36400
N1091       N  0.10135402  0.16686305  0.21655193    -0.43800
N1092       N  0.08072670  0.29920702  0.15684599    -0.43800
C1093       C  0.20155510  0.15435069  0.19142344    -0.00200
C1094       C  0.18536201  0.12913188  0.17995493    -0.12100
C1095       C  0.18645762  0.09356449  0.17892292     0.02000
C1096       C  0.20338328  0.08179973  0.18964069    -0.00300
C1097       C  0.22083508  0.10750911  0.20090077    -0.12000
C1098       C  0.22009942  0.14343881  0.20188298     0.01900
H1099       H  0.17214009  0.13752237  0.17162205     0.14900
H1100       H  0.23420375  0.09899579  0.20915080     0.14900
C1101       C  0.23720975  0.16745401  0.21402457     0.36500
C1102       C  0.17146101  0.07048751  0.16645540     0.36400
N1103       N  0.25131884  0.18631527  0.22382101    -0.43800
N1104       N  0.15963852  0.05199970  0.15645286    -0.43800
C1105       C  0.42823246  0.20669409  0.13770450    -0.00200
C1106       C  0.41019883  0.21604723  0.12680737    -0.12100
C1107       C  0.40872723  0.25155924  0.12676982     0.02000
C1108       C  0.42501017  0.27834195  0.13792923    -0.00300
C1109       C  0.44300595  0.26897163  0.14882798    -0.12000
C1110       C  0.44471474  0.23366948  0.14883942     0.01900
H1111       H  0.39786029  0.19585343  0.11814475     0.14900
H1112       H  0.45520948  0.28907263  0.15752247     0.14900
C1113       C  0.46168891  0.22506047  0.16078061     0.36500
C1114       C  0.39227255  0.26057290  0.11478858     0.36400
N1115       N  0.47537377  0.21830296  0.17036190    -0.43800
N1116       N  0.37926533  0.26734723  0.10502655    -0.43800
C1117       C  0.27378816  0.28029201  0.17351243    -0.00200
C1118       C  0.31089636  0.29278132  0.18002869    -0.12100
C1119       C  0.34680654  0.31239153  0.17272056     0.02000
C1120       C  0.34676310  0.32172371  0.15865581    -0.00300
C1121       C  0.31036090  0.31123485  0.15232704    -0.12000
C1122       C  0.27425307  0.28924927  0.15925237     0.01900
H1123       H  0.31241809  0.28747122  0.19092080     0.14900
H1124       H  0.30998746  0.32013220  0.14179910     0.14900
C1125       C  0.23866374  0.27413429  0.15097153     0.36500
C1126       C  0.38319521  0.32142503  0.17976289     0.36400
N1127       N  0.21040316  0.26201260  0.14417593    -0.43800
N1128       N  0.41244339  0.32859758  0.18534048    -0.43800
C1129       C  0.71832951  0.19496809  0.13626645    -0.00200
C1130       C  0.71857208  0.23058703  0.13278403    -0.12100
C1131       C  0.75333068  0.26783489  0.13316170     0.02000
C1132       C  0.78970949  0.27085249  0.13735041    -0.00300
C1133       C  0.79029924  0.23535753  0.13963859    -0.12000
C1134       C  0.75595129  0.19795308  0.13869445     0.01900
H1135       H  0.69142216  0.22967788  0.12952919     0.14900
H1136       H  0.81784028  0.23643480  0.14238930     0.14900
C1137       C  0.76210253  0.16437831  0.14023354     0.36500
C1138       C  0.75054036  0.30196476  0.12863053     0.36400
N1139       N  0.76872454  0.13846078  0.14136359    -0.43800
N1140       N  0.74803323  0.32917619  0.12501248    -0.43800
C1141       C  0.56779719  0.11947426  0.14327457    -0.00200
C1142       C  0.56390665  0.14591183  0.13417617    -0.12100
C1143       C  0.52889971  0.14770935  0.13298091     0.02000
C1144       C  0.49547254  0.12311648  0.14124289    -0.00300
C1145       C  0.49875312  0.09595163  0.15016274    -0.12000
C1146       C  0.53350463  0.09297030  0.15091269     0.01900
H1147       H  0.58814399  0.16449159  0.12735517     0.14900
H1148       H  0.47344322  0.07485121  0.15601751     0.14900
C1149       C  0.53063539  0.05954937  0.15852093     0.36500
C1150       C  0.52809616  0.17442994  0.12265823     0.36400
N1151       N  0.52737486  0.03224062  0.16458359    -0.43800
N1152       N  0.52770335  0.19598581  0.11441202    -0.43800
C1153       C  0.71350890  0.01237883  0.22035798    -0.00200
C1154       C  0.68244078  0.02037983  0.21831920    -0.12100
C1155       C  0.66138487  0.02294722  0.22948287     0.02000
C1156       C  0.67222607  0.01870590  0.24308031    -0.00300
C1157       C  0.70204160  0.00863022  0.24506681    -0.12000
C1158       C  0.72256460  0.00523348  0.23383499     0.01900
H1159       H  0.67429087  0.02422800  0.20791868     0.14900
H1160       H  0.71072566  0.00531866  0.25544163     0.14900
C1161       C  0.75397058  0.99634740  0.23647011     0.36500
C1162       C  0.62839816  0.02925247  0.22662339     0.36400
N1163       N  0.77903536  0.98910385  0.23863912    -0.43800
N1164       N  0.60175312  0.03391151  0.22425065    -0.43800
C1165       C  0.82971593  0.08598156  0.19312816    -0.00200
C1166       C  0.83984457  0.11228523  0.20430965    -0.12100
C1167       C  0.87693317  0.14738295  0.20490826     0.02000
C1168       C  0.90454602  0.15644134  0.19419435    -0.00300
C1169       C  0.89392236  0.13058364  0.18291970    -0.12000
C1170       C  0.85699245  0.09605053  0.18220846     0.01900
H1171       H  0.81920424  0.10494708  0.21273808     0.14900
H1172       H  0.91430419  0.13795955  0.17439731     0.14900
C1173       C  0.84749624  0.07224052  0.16986736     0.36500
C1174       C  0.88634665  0.17303977  0.21673293     0.36400
N1175       N  0.84000049  0.05313196  0.15999713    -0.43800
N1176       N  0.89390373  0.19370841  0.22618776    -0.43800
C1177       C  0.66790946  0.07658296  0.16064114    -0.00200
C1178       C  0.64832092  0.03517104  0.16233129    -0.12100
C1179       C  0.66538462  0.01669686  0.17015900     0.02000
C1180       C  0.70357509  0.03976599  0.17614756    -0.00300
C1181       C  0.72177986  0.08145809  0.17509485    -0.12000
C1182       C  0.70370248  0.09981148  0.16786081     0.01900
H1183       H  0.61983179  0.01713897  0.15732670     0.14900
H1184       H  0.75035969  0.10009570  0.17992324     0.14900
C1185       C  0.72090625  0.14234879  0.16892047     0.36500
C1186       C  0.64209833  0.97434530  0.17232484     0.36400
N1187       N  0.73456124  0.17637272  0.17011984    -0.43800
N1188       N  0.62305322  0.94040385  0.17407246    -0.43800
C1189       C  0.71242356  0.56316145  0.14087439    -0.00200
C1190       C  0.74049775  0.58206743  0.13038369    -0.12100
C1191       C  0.77689017  0.58225093  0.13052659     0.02000
C1192       C  0.78581694  0.56302305  0.14130440    -0.00300
C1193       C  0.75753033  0.54388268  0.15169096    -0.12000
C1194       C  0.72170333  0.54441824  0.15172234     0.01900
H1195       H  0.73393454  0.59668011  0.12201712     0.14900
H1196       H  0.76416065  0.52968381  0.16018195     0.14900
C1197       C  0.69640040  0.52800967  0.16358092     0.36500
C1198       C  0.80373371  0.60110495  0.11920635     0.36400
N1199       N  0.67620308  0.51509505  0.17311564    -0.43800
N1200       N  0.82496980  0.61627700  0.11005669    -0.43800
C1201       C  0.56341233  0.50189711  0.14524599    -0.00200
C1202       C  0.55520071  0.47492089  0.13433189    -0.12100
C1203       C  0.51972308  0.43877443  0.13325925     0.02000
C1204       C  0.48945092  0.42748943  0.14321583    -0.00300
C1205       C  0.49754390  0.45376654  0.15436912    -0.12000
C1206       C  0.53375866  0.49014521  0.15556571     0.01900
H1207       H  0.57716316  0.48234773  0.12634150     0.14900
H1208       H  0.47590269  0.44624427  0.16239285     0.14900
C1209       C  0.53856094  0.51323659  0.16773008     0.36500
C1210       C  0.51597803  0.41350095  0.12178004     0.36400
N1211       N  0.54097498  0.53048723  0.17772899    -0.43800
N1212       N  0.51354528  0.39321311  0.11268344    -0.43800
C1213       C  0.72014127  0.75413594  0.21871222    -0.00200
C1214       C  0.69293769  0.71375832  0.21676423    -0.12100
C1215       C  0.67208266  0.68926057  0.22783775     0.02000
C1216       C  0.67889927  0.70489411  0.24137436    -0.00300
C1217       C  0.70527042  0.74566322  0.24329366    -0.12000
C1218       C  0.72566861  0.77039137  0.23210753     0.01900
H1219       H  0.68737871  0.70131150  0.20645584     0.14900
H1220       H  0.71096032  0.75804109  0.25360851     0.14900
C1221       C  0.75283196  0.81190138  0.23478261     0.36500
C1222       C  0.64339655  0.64832484  0.22486688     0.36400
N1223       N  0.77426190  0.84520531  0.23701977    -0.43800
N1224       N  0.62033986  0.61559310  0.22243221    -0.43800
C1225       C  0.83548854  0.79779617  0.19185838    -0.00200
C1226       C  0.84690668  0.78547973  0.18001941    -0.12100
C1227       C  0.88280526  0.78501230  0.17971017     0.02000
C1228       C  0.90774103  0.79665070  0.19145492    -0.00300
C1229       C  0.89681074  0.80994669  0.20314738    -0.12000
C1230       C  0.86097262  0.81047184  0.20344875     0.01900
H1231       H  0.82810063  0.77694002  0.17091002     0.14900
H1232       H  0.91624778  0.81968088  0.21210764     0.14900
C1233       C  0.85113061  0.82438734  0.21573000     0.36500
C1234       C  0.89409841  0.77389208  0.16708611     0.36400
N1235       N  0.84361415  0.83573917  0.22562038    -0.43800
N1236       N  0.90316895  0.76520215  0.15691676    -0.43800
C1237       C  0.75078609  0.86484571  0.18489658    -0.00200
C1238       C  0.71535119  0.86395933  0.18857728    -0.12100
C1239       C  0.71278213  0.89879302  0.18909281     0.02000
C1240       C  0.74647082  0.93606405  0.18611278    -0.00300
C1241       C  0.77845082  0.93542280  0.17963375    -0.12000
C1242       C  0.78056973  0.90039727  0.17875210     0.01900
H1243       H  0.69006772  0.83611048  0.19179514     0.14900
H1244       H  0.80180821  0.96203802  0.17492604     0.14900
C1245       C  0.81163758  0.90175039  0.17035788     0.36500
C1246       C  0.67554077  0.89529863  0.19314477     0.36400
N1247       N  0.83662008  0.90337036  0.16351108    -0.43800
N1248       N  0.64568743  0.89236399  0.19645297    -0.43800
C1249       C  0.67375331  0.64543204  0.16065259    -0.00200
C1250       C  0.65127293  0.66304519  0.16471030    -0.12100
C1251       C  0.66913564  0.70026115  0.17138759     0.02000
C1252       C  0.71011669  0.72009549  0.17451610    -0.00300
C1253       C  0.73212801  0.70201280  0.17083605    -0.12000
C1254       C  0.71478079  0.66573541  0.16381435     0.01900
H1255       H  0.61992816  0.64840883  0.16222016     0.14900
H1256       H  0.76353711  0.71681259  0.17321845     0.14900
C1257       C  0.74070023  0.65114378  0.15977236     0.36500
C1258       C  0.64468727  0.71709295  0.17506103     0.36400
N1259       N  0.76279396  0.64118541  0.15634646    -0.43800
N1260       N  0.62505020  0.73063490  0.17792284    -0.43800
C1261       C  0.94033841  0.33781115  0.08838443    -0.00200
C1262       C  0.90835292  0.34516016  0.08779575    -0.12100
C1263       C  0.89096785  0.34893470  0.09989612     0.02000
C1264       C  0.90579360  0.34572926  0.11287152    -0.00300
C1265       C  0.93791390  0.33893283  0.11353054    -0.12000
C1266       C  0.95543249  0.33523861  0.10149260     0.01900
H1267       H  0.89581291  0.34634469  0.07788181     0.14900
H1268       H  0.94937411  0.33650997  0.12351372     0.14900
C1269       C  0.98890593  0.32892899  0.10298637     0.36500
C1270       C  0.85644523  0.35362826  0.09881361     0.36400
N1271       N  0.01573944  0.32389886  0.10420126    -0.43800
N1272       N  0.82858318  0.35708392  0.09805916    -0.43800
C1273       C  0.07997354  0.31085412  0.05814923    -0.00200
C1274       C  0.08169745  0.28144137  0.06620176    -0.12100
C1275       C  0.11669122  0.27977751  0.06747793     0.02000
C1276       C  0.15095533  0.30744683  0.06034779    -0.00300
C1277       C  0.15019011  0.33861728  0.05309628    -0.12000
C1278       C  0.11520169  0.34071760  0.05201571     0.01900
H1279       H  0.05537064  0.25920662  0.07144153     0.14900
H1280       H  0.17649346  0.36041682  0.04773451     0.14900
C1281       C  0.11615607  0.37287952  0.04410947     0.36500
C1282       C  0.11666369  0.24966945  0.07635879     0.36400
N1283       N  0.11725718  0.39892206  0.03783085    -0.43800
N1284       N  0.11667107  0.22575756  0.08358134    -0.43800
C1285       C  0.36937950  0.34206035  0.11254178    -0.00200
C1286       C  0.32880126  0.31403391  0.11356673    -0.12100
C1287       C  0.30235626  0.30619567  0.10261261     0.02000
C1288       C  0.31626847  0.32562827  0.08982025    -0.00300
C1289       C  0.35687638  0.35283751  0.08849795    -0.12000
C1290       C  0.38343233  0.36082683  0.09954773     0.01900
H1291       H  0.31696554  0.29723063  0.12288791     0.14900
H1292       H  0.36830131  0.36691783  0.07859475     0.14900
C1293       C  0.42498917  0.38579290  0.09664636     0.36500
C1294       C  0.26106215  0.27786718  0.10497243     0.36400
N1295       N  0.45808160  0.40585967  0.09396013    -0.43800
N1296       N  0.22805997  0.25518268  0.10696762    -0.43800
C1297       C  0.24522069  0.18251132  0.05184040    -0.00200
C1298       C  0.28015320  0.18300559  0.05595901    -0.12100
C1299       C  0.28284780  0.14839004  0.05592158     0.02000
C1300       C  0.25013834  0.11214565  0.05149769    -0.00300
C1301       C  0.21506019  0.11153014  0.04741722    -0.12000
C1302       C  0.21236398  0.14630579  0.04752439     0.01900
H1303       H  0.30537117  0.21052643  0.05950396     0.14900
H1304       H  0.18981529  0.08390710  0.04397317     0.14900
C1305       C  0.17616639  0.14422938  0.04267123     0.36500
C1306       C  0.31902663  0.15084352  0.06105587     0.36400
N1307       N  0.14720625  0.14258559  0.03872070    -0.43800
N1308       N  0.34792059  0.15274613  0.06521986    -0.43800
C1309       C  0.32829095  0.04720832  0.08741297    -0.00200
C1310       C  0.36911447  0.07237377  0.08537603    -0.12100
C1311       C  0.39445565  0.09381962  0.09635738     0.02000
C1312       C  0.37913925  0.09005376  0.10980561    -0.00300
C1313       C  0.33845761  0.06463093  0.11185802    -0.12000
C1314       C  0.31312076  0.04331135  0.10090148     0.01900
H1315       H  0.38114679  0.07640194  0.07506892     0.14900
H1316       H  0.32639419  0.06074005  0.12215665     0.14900
C1317       C  0.27179227  0.01713528  0.10393354     0.36500
C1318       C  0.43564408  0.12073747  0.09336563     0.36400
N1319       N  0.23869691  0.99615274  0.10640668    -0.43800
N1320       N  0.46860511  0.14220186  0.09084993    -0.43800
C1321       C  0.08874260  0.82110619  0.05966057    -0.00200
C1322       C  0.09256304  0.85332123  0.06739740    -0.12100
C1323       C  0.12756837  0.89007553  0.06732935     0.02000
C1324       C  0.16009704  0.89559914  0.05928674    -0.00300
C1325       C  0.15705702  0.86285279  0.05203009    -0.12000
C1326       C  0.12181281  0.82585106  0.05213035     0.01900
H1327       H  0.06772828  0.85001716  0.07341792     0.14900
H1328       H  0.18166343  0.86658291  0.04578437     0.14900
C1329       C  0.11976159  0.79412970  0.04380247     0.36500
C1330       C  0.12900282  0.92150920  0.07567136     0.36400
N1331       N  0.11803526  0.76868256  0.03711484    -0.43800
N1332       N  0.13002799  0.94659674  0.08237752    -0.43800
C1333       C  0.94405422  0.65370901  0.09237153    -0.00200
C1334       C  0.94810289  0.67406349  0.10477434    -0.12100
C1335       C  0.92939469  0.65394537  0.11690906     0.02000
C1336       C  0.90611044  0.61204574  0.11695085    -0.00300
C1337       C  0.90230879  0.59158798  0.10455745    -0.12000
C1338       C  0.92079939  0.61179668  0.09238021     0.01900
H1339       H  0.96549539  0.70626119  0.10498181     0.14900
H1340       H  0.88408481  0.55946897  0.10428733     0.14900
C1341       C  0.91410999  0.58858732  0.08004558     0.36500
C1342       C  0.93531505  0.67772997  0.12901008     0.36400
N1343       N  0.90845084  0.56968505  0.07021313    -0.43800
N1344       N  0.94041840  0.69808638  0.13838200    -0.43800
C1345       C  0.80127820  0.72813515  0.05741764    -0.00200
C1346       C  0.79981273  0.69126260  0.05859637    -0.12100
C1347       C  0.83445227  0.68884685  0.05938231     0.02000
C1348       C  0.87174016  0.72394363  0.05871247    -0.00300
C1349       C  0.87324022  0.76084452  0.05795761    -0.12000
C1350       C  0.83860092  0.76330198  0.05737499     0.01900
H1351       H  0.77143310  0.66403160  0.05893067     0.14900
H1352       H  0.90165641  0.78803369  0.05761898     0.14900
C1353       C  0.84262997  0.80239114  0.05674881     0.36500
C1354       C  0.83056101  0.64999969  0.06118181     0.36400
N1355       N  0.84595198  0.83376341  0.05630851    -0.43800
N1356       N  0.82742844  0.61890940  0.06271326    -0.43800
C1357       C  0.65552584  0.66151902  0.08996702    -0.00200
C1358       C  0.67169625  0.68148724  0.10244554    -0.12100
C1359       C  0.66772671  0.66079793  0.11474752     0.02000
C1360       C  0.64714505  0.61877085  0.11480801    -0.00300
C1361       C  0.63008707  0.59873135  0.10237086    -0.12000
C1362       C  0.63390193  0.61952240  0.09006112     0.01900
H1363       H  0.68817625  0.71373153  0.10260720     0.14900
H1364       H  0.61412988  0.56649319  0.10219798     0.14900
C1365       C  0.61598928  0.59676666  0.07771731     0.36500
C1366       C  0.68444709  0.68422328  0.12702526     0.36400
N1367       N  0.60152175  0.57840416  0.06785115    -0.43800
N1368       N  0.69860923  0.70458595  0.13649579    -0.43800
C1369       C  0.86869095  0.18893969  0.05509331    -0.00200
C1370       C  0.83448594  0.18710309  0.06051736    -0.12100
C1371       C  0.79870918  0.15131412  0.06097296     0.02000
C1372       C  0.79662956  0.11633551  0.05583422    -0.00300
C1373       C  0.83100014  0.11779885  0.05076453    -0.12000
C1374       C  0.86687814  0.15371384  0.05027838     0.01900
H1375       H  0.83563131  0.21380654  0.06444475     0.14900
H1376       H  0.82955226  0.09105048  0.04674067     0.14900
C1377       C  0.90058807  0.15366094  0.04418228     0.36500
C1378       C  0.76494157  0.15129634  0.06708046     0.36400
N1379       N  0.92748969  0.15351106  0.03924381    -0.43800
N1380       N  0.73791587  0.15121890  0.07201055    -0.43800
C1381       C  0.68199767  0.90100877  0.05712851    -0.00200
C1382       C  0.71386380  0.89984425  0.06362757    -0.12100
C1383       C  0.71612393  0.86494757  0.06409793     0.02000
C1384       C  0.68574922  0.82972506  0.05800830    -0.00300
C1385       C  0.65307347  0.83041360  0.05198376    -0.12000
C1386       C  0.65105980  0.86556725  0.05138742     0.01900
H1387       H  0.73769018  0.92662943  0.06821082     0.14900
H1388       H  0.62961232  0.80371309  0.04723371     0.14900
C1389       C  0.61797734  0.86457018  0.04414216     0.36500
C1390       C  0.75026837  0.86667635  0.07083629     0.36400
N1391       N  0.59143230  0.86343430  0.03823011    -0.43800
N1392       N  0.77777089  0.86838946  0.07622560    -0.43800
C1393       C  0.64213302  0.07416145  0.11319472    -0.00200
C1394       C  0.62918935  0.08186573  0.10050663    -0.12100
C1395       C  0.63362329  0.06607797  0.08806812     0.02000
C1396       C  0.65078197  0.04130314  0.08816752    -0.00300
C1397       C  0.66281542  0.03299570  0.10087743    -0.12000
C1398       C  0.65895962  0.04915471  0.11322804     0.01900
H1399       H  0.61664493  0.10138532  0.10023393     0.14900
H1400       H  0.67620247  0.01421313  0.10119505     0.14900
C1401       C  0.67255335  0.03889648  0.12565277     0.36500
C1402       C  0.62190849  0.07737139  0.07540514     0.36400
N1403       N  0.68443429  0.03032766  0.13530120    -0.43800
N1404       N  0.61262434  0.08672497  0.06529543    -0.43800
C1405       C  0.20733437  0.85034384  0.72244366    -0.00200
C1406       C  0.17291905  0.85335431  0.72129371    -0.12100
C1407       C  0.13544681  0.81974350  0.72158160     0.02000
C1408       C  0.13171239  0.78168318  0.72287749    -0.00300
C1409       C  0.16613992  0.77851666  0.72390570    -0.12000
C1410       C  0.20378317  0.81236781  0.72374672     0.01900
H1411       H  0.17512150  0.88229301  0.72030655     0.14900
H1412       H  0.16373078  0.74948850  0.72485945     0.14900
C1413       C  0.23790389  0.80701175  0.72494464     0.36500
C1414       C  0.10166586  0.82576086  0.72076483     0.36400
N1415       N  0.26523619  0.80271607  0.72593935    -0.43800
N1416       N  0.07468185  0.83071173  0.72017065    -0.43800
C1417       C  0.42454695  0.96934650  0.72593737    -0.00200
C1418       C  0.43087037  0.94494882  0.73519293    -0.12100
C1419       C  0.46653949  0.94433484  0.73522226     0.02000
C1420       C  0.49639775  0.96811514  0.72575287    -0.00300
C1421       C  0.49090977  0.99391284  0.71696607    -0.12000
C1422       C  0.45526656  0.99459638  0.71692462     0.01900
H1423       H  0.40766314  0.92588939  0.74229151     0.14900
H1424       H  0.51363470  0.01192537  0.70956000     0.14900
C1425       C  0.44992626  0.01906693  0.70678313     0.36500
C1426       C  0.47211752  0.91956125  0.74516969     0.36400
N1427       N  0.44545773  0.03848978  0.69863047    -0.43800
N1428       N  0.47695410  0.90007037  0.75318951    -0.43800
C1429       C  0.57306385  0.76629468  0.71150620    -0.00200
C1430       C  0.54294987  0.76937456  0.71827554    -0.12100
C1431       C  0.54153380  0.80475164  0.71790400     0.02000
C1432       C  0.57057506  0.83781320  0.71048426    -0.00300
C1433       C  0.59832619  0.83336982  0.70267087    -0.12000
C1434       C  0.59980926  0.79808881  0.70309013     0.01900
H1435       H  0.52186918  0.74494219  0.72461157     0.14900
H1436       H  0.62008442  0.85815091  0.69662124     0.14900
C1437       C  0.62960514  0.79586283  0.69497888     0.36500
C1438       C  0.51179797  0.80687702  0.72608613     0.36400
N1439       N  0.65351055  0.79427690  0.68843375    -0.43800
N1440       N  0.48797151  0.80839376  0.73270243    -0.43800
C1441       C  0.42211951  0.49023501  0.73309128    -0.00200
C1442       C  0.45620064  0.49143612  0.72786438    -0.12100
C1443       C  0.49227269  0.52721446  0.72729249     0.02000
C1444       C  0.49465574  0.56275875  0.73210199    -0.00300
C1445       C  0.46115987  0.56089272  0.73819340    -0.12000
C1446       C  0.42521444  0.52510631  0.73882176     0.01900
H1447       H  0.45416702  0.46482157  0.72345801     0.14900
H1448       H  0.46273443  0.58772905  0.74218323     0.14900
C1449       C  0.39202425  0.52513286  0.74538032     0.36500
C1450       C  0.52537142  0.52675228  0.72086120     0.36400
N1451       N  0.36551561  0.52513147  0.75070541    -0.43800
N1452       N  0.55182107  0.52626875  0.71568606    -0.43800
C1453       C  0.14781593  0.41231198  0.71822044    -0.00200
C1454       C  0.15157103  0.38587900  0.70934555    -0.12100
C1455       C  0.18642631  0.38396446  0.70890730     0.02000
C1456       C  0.21857473  0.40875220  0.71757649    -0.00300
C1457       C  0.21572587  0.43670435  0.72592491    -0.12000
C1458       C  0.18081534  0.43878058  0.72631563     0.01900
H1459       H  0.12690024  0.36603329  0.70280312     0.14900
H1460       H  0.24036297  0.45609986  0.73256248     0.14900
C1461       C  0.17969289  0.46762647  0.73537421     0.36500
C1462       C  0.18821396  0.35639653  0.69938181     0.36400
N1463       N  0.17909338  0.49091130  0.74262983    -0.43800
N1464       N  0.18956240  0.33437622  0.69170138    -0.43800
C1465       C  0.02494068  0.50145497  0.72604503    -0.00200
C1466       C  0.98859248  0.49964587  0.72302865    -0.12100
C1467       C  0.98506530  0.53402815  0.72311646     0.02000
C1468       C  0.01823355  0.57111355  0.72657063    -0.00300
C1469       C  0.05399234  0.57249713  0.73011852    -0.12000
C1470       C  0.05782636  0.53856363  0.72973943     0.01900
H1471       H  0.96314843  0.47152962  0.72008946     0.14900
H1472       H  0.07977198  0.60063867  0.73283231     0.14900
C1473       C  0.09645353  0.54350436  0.73281808     0.36500
C1474       C  0.94767746  0.53052860  0.71900036     0.36400
N1475       N  0.12758721  0.54782400  0.73517273    -0.43800
N1476       N  0.91782656  0.52787761  0.71562151    -0.43800
C1477       C  0.23615474  0.00147814  0.77854920    -0.00200
C1478       C  0.26236525  0.98697729  0.78080107    -0.12100
C1479       C  0.28308327  0.98242202  0.76990129     0.02000
C1480       C  0.27796723  0.99275227  0.75629308    -0.00300
C1481       C  0.25215300  0.00792592  0.75408432    -0.12000
C1482       C  0.23106834  0.01202228  0.76501479     0.01900
H1483       H  0.26695937  0.97938438  0.79118976     0.14900
H1484       H  0.24710133  0.01507959  0.74369333     0.14900
C1485       C  0.20268322  0.02476270  0.76191489     0.36500
C1486       C  0.30920282  0.96691334  0.77310508     0.36400
N1487       N  0.17981982  0.03480023  0.75938168    -0.43800
N1488       N  0.32994741  0.95431789  0.77575311    -0.43800
C1489       C  0.28718743  0.94701667  0.83762668    -0.00200
C1490       C  0.24623681  0.92384715  0.83525376    -0.12100
C1491       C  0.22503298  0.93897393  0.82811167     0.02000
C1492       C  0.24471656  0.97846718  0.82306779    -0.00300
C1493       C  0.28581829  0.00170771  0.82530555    -0.12000
C1494       C  0.30710528  0.98638818  0.83244890     0.01900
H1495       H  0.23045291  0.89354693  0.83910662     0.14900
H1496       H  0.30141577  0.03193468  0.82139256     0.14900
C1497       C  0.34897394  0.01222871  0.83472701     0.36500
C1498       C  0.18277973  0.91338052  0.82678041     0.36400
N1499       N  0.38258871  0.03304022  0.83648581    -0.43800
N1500       N  0.14902807  0.89168636  0.82604273    -0.43800
C1501       C  0.27001100  0.31818718  0.75799802    -0.00200
C1502       C  0.23201857  0.31001969  0.76195248    -0.12100
C1503       C  0.21284800  0.28539088  0.77320722     0.02000
C1504       C  0.23232400  0.26939394  0.78106492    -0.00300
C1505       C  0.27007909  0.27696696  0.77698373    -0.12000
C1506       C  0.28882248  0.30078541  0.76546260     0.01900
H1507       H  0.21682536  0.32238527  0.75603697     0.14900
H1508       H  0.28533790  0.26483499  0.78297633     0.14900
C1509       C  0.32775605  0.30796164  0.76187089     0.36500
C1510       C  0.17249721  0.27543428  0.77590969     0.36400
N1511       N  0.35893273  0.31352624  0.75901612    -0.43800
N1512       N  0.14004752  0.26752536  0.77778778    -0.43800
C1513       C  0.20550831  0.08367315  0.81163833    -0.00200
C1514       C  0.17486202  0.08532172  0.81874619    -0.12100
C1515       C  0.17400274  0.12096711  0.82010328     0.02000
C1516       C  0.20351468  0.15628591  0.81373945    -0.00300
C1517       C  0.23775328  0.15602844  0.80918907    -0.12000
C1518       C  0.23923239  0.12059015  0.80827184     0.01900
H1519       H  0.15172479  0.05898696  0.82367303     0.14900
H1520       H  0.26309149  0.18355454  0.80577784     0.14900
C1521       C  0.27572755  0.12326648  0.80372775     0.36500
C1522       C  0.14464803  0.12050624  0.82920767     0.36400
N1523       N  0.30498066  0.12546297  0.80005626    -0.43800
N1524       N  0.12105166  0.11968893  0.83659655    -0.43800
C1525       C  0.24631405  0.30093730  0.82586728    -0.00200
C1526       C  0.26607757  0.33679472  0.81838953    -0.12100
C1527       C  0.28523839  0.37383413  0.82508214     0.02000
C1528       C  0.28517118  0.37563960  0.83964886    -0.00300
C1529       C  0.26650348  0.33969072  0.84710518    -0.12000
C1530       C  0.24696615  0.30275232  0.84041405     0.01900
H1531       H  0.26602742  0.33595716  0.80720831     0.14900
H1532       H  0.26624885  0.34040531  0.85828312     0.14900
C1533       C  0.22560830  0.26743889  0.84874033     0.36500
C1534       C  0.30268429  0.40932956  0.81667933     0.36400
N1535       N  0.20839463  0.23910510  0.85540266    -0.43800
N1536       N  0.31677087  0.43773954  0.80991559    -0.43800
C1537       C  0.16159004  0.45738202  0.85638947    -0.00200
C1538       C  0.16211326  0.42466176  0.85039742    -0.12100
C1539       C  0.19692385  0.42212000  0.85004476     0.02000
C1540       C  0.23243128  0.45282565  0.85579831    -0.00300
C1541       C  0.23178537  0.48523503  0.86189203    -0.12000
C1542       C  0.19726280  0.48793795  0.86223334     0.01900
H1543       H  0.13541021  0.40127656  0.84563183     0.14900
H1544       H  0.25857693  0.50872213  0.86656915     0.14900
C1545       C  0.20007973  0.52241464  0.86891277     0.36500
C1546       C  0.19541923  0.38854714  0.84313200     0.36400
N1547       N  0.20383578  0.55083671  0.87414735    -0.43800
N1548       N  0.19352026  0.36133915  0.83755679    -0.43800
C1549       C  0.98492363  0.27820349  0.77745391    -0.00200
C1550       C  0.97755074  0.31006971  0.77764230    -0.12100
C1551       C  0.98395995  0.33375326  0.76592247     0.02000
C1552       C  0.99727415  0.32510611  0.75359213    -0.00300
C1553       C  0.00334024  0.29218202  0.75331613    -0.12000
C1554       C  0.99763749  0.26900131  0.76518215     0.01900
H1555       H  0.96672499  0.31645951  0.78700037     0.14900
H1556       H  0.01397868  0.28544057  0.74398410     0.14900
C1557       C  0.00603800  0.23666533  0.76472509     0.36500
C1558       C  0.97628152  0.36650018  0.76683225     0.36400
N1559       N  0.01290238  0.21082868  0.76449062    -0.43800
N1560       N  0.97028178  0.39285116  0.76754048    -0.43800
C1561       C  0.04880106  0.22991186  0.80653546    -0.00200
C1562       C  0.05043317  0.19840694  0.80007625    -0.12100
C1563       C  0.08494566  0.19548243  0.80044199     0.02000
C1564       C  0.11910168  0.22449631  0.80747509    -0.00300
C1565       C  0.11772386  0.25633537  0.81375172    -0.12000
C1566       C  0.08310227  0.25921718  0.81340751     0.01900
H1567       H  0.02463286  0.17608636  0.79454449     0.14900
H1568       H  0.14361547  0.27867569  0.81924005     0.14900
C1569       C  0.08342503  0.29153710  0.82081333     0.36500
C1570       C  0.08475390  0.16322774  0.79300988     0.36400
N1571       N  0.08461284  0.31775460  0.82685691    -0.43800
N1572       N  0.08453112  0.13724580  0.78711721    -0.43800
C1573       C  0.99959465  0.30945949  0.82241145    -0.00200
C1574       C  0.01765829  0.34601106  0.81532206    -0.12100
C1575       C  0.03564656  0.38237323  0.82242225     0.02000
C1576       C  0.03617805  0.38270255  0.83700110    -0.00300
C1577       C  0.01727978  0.34612563  0.84405679    -0.12000
C1578       C  0.99939814  0.30986460  0.83698162     0.01900
H1579       H  0.01840836  0.34628051  0.80415854     0.14900
H1580       H  0.01702550  0.34573353  0.85524274     0.14900
C1581       C  0.98371970  0.27373510  0.84501941     0.36500
C1582       C  0.05474077  0.41861555  0.81444070     0.36400
N1583       N  0.97132204  0.24491071  0.85152967    -0.43800
N1584       N  0.06974567  0.44753378  0.80795307    -0.43800
C1585       C  0.08103332  0.52699677  0.85358281    -0.00200
C1586       C  0.06556359  0.53838118  0.84231540    -0.12100
C1587       C  0.06759312  0.57586558  0.84182203     0.02000
C1588       C  0.08493473  0.60303788  0.85295140    -0.00300
C1589       C  0.10298870  0.59247867  0.86355329    -0.12000
C1590       C  0.10047105  0.55539390  0.86418775     0.01900
H1591       H  0.05252234  0.51865582  0.83362999     0.14900
H1592       H  0.11825759  0.61324903  0.87188834     0.14900
C1593       C  0.11711040  0.54719402  0.87634263     0.36500
C1594       C  0.05460124  0.58589491  0.82922085     0.36400
N1595       N  0.12966157  0.54062177  0.88626810    -0.43800
N1596       N  0.04438417  0.59320345  0.81889105    -0.43800
C1597       C  0.24416315  0.82643682  0.85764502    -0.00200
C1598       C  0.23475538  0.79952651  0.84670427    -0.12100
C1599       C  0.19919755  0.76302434  0.84648282     0.02000
C1600       C  0.17205843  0.75242141  0.85748871    -0.00300
C1601       C  0.18144478  0.77939376  0.86840193    -0.12000
C1602       C  0.21699785  0.81597270  0.86858822     0.01900
H1603       H  0.25502884  0.80740062  0.83812734     0.14900
H1604       H  0.16111558  0.77162974  0.87695386     0.14900
C1605       C  0.22546254  0.84126198  0.88045599     0.36500
C1606       C  0.19059918  0.73814773  0.83447183     0.36400
N1607       N  0.23187632  0.86120522  0.89004957    -0.43800
N1608       N  0.18386347  0.71830198  0.82482819    -0.43800
C1609       C  0.97739920  0.74590483  0.78269982    -0.00200
C1610       C  0.96675591  0.75544220  0.76992228    -0.12100
C1611       C  0.97171584  0.73990680  0.75753554     0.02000
C1612       C  0.98687482  0.71341310  0.75778603    -0.00300
C1613       C  0.99718195  0.70375005  0.77059626    -0.12000
C1614       C  0.99293261  0.71980102  0.78292126     0.01900
H1615       H  0.95533343  0.77592054  0.76958693     0.14900
H1616       H  0.00917953  0.68376171  0.77101530     0.14900
C1617       C  0.00432712  0.70803202  0.79552437     0.36500
C1618       C  0.96270579  0.75324124  0.74477374     0.36400
N1619       N  0.01423849  0.69792484  0.80530315    -0.43800
N1620       N  0.95568441  0.76427252  0.73457365    -0.43800
C1621       C  0.04566667  0.86203908  0.80812032    -0.00200
C1622       C  0.07004300  0.86889247  0.79665283    -0.12100
C1623       C  0.10640488  0.90432634  0.79536305     0.02000
C1624       C  0.11900326  0.93358895  0.80575806    -0.00300
C1625       C  0.09464703  0.92642132  0.81727361    -0.12000
C1626       C  0.05858479  0.89100585  0.81860594     0.01900
H1627       H  0.06023318  0.84682282  0.78853029     0.14900
H1628       H  0.10441159  0.94820610  0.82549036     0.14900
C1629       C  0.03644600  0.88437791  0.83116158     0.36500
C1630       C  0.12909981  0.91053232  0.78298761     0.36400
N1631       N  0.01885479  0.87908392  0.84125843    -0.43800
N1632       N  0.14697570  0.91520488  0.77300032    -0.43800
C1633       C  0.00093216  0.74349185  0.82933446    -0.00200
C1634       C  0.04155761  0.76705794  0.83209441    -0.12100
C1635       C  0.06314829  0.75123159  0.83845714     0.02000
C1636       C  0.04402274  0.71072731  0.84242211    -0.00300
C1637       C  0.00289244  0.68737281  0.84015578    -0.12000
C1638       C  0.98129054  0.70337084  0.83368813     0.01900
H1639       H  0.05693010  0.79793104  0.82880706     0.14900
H1640       H  0.98765580  0.65640924  0.84329628     0.14900
C1641       C  0.93983869  0.67731446  0.83067282     0.36500
C1642       C  0.10534478  0.77711904  0.83988757     0.36400
N1643       N  0.90662251  0.65652657  0.82818089    -0.43800
N1644       N  0.13904942  0.79885493  0.84083097    -0.43800
C1645       C  0.46855494  0.91017162  0.85113955    -0.00200
C1646       C  0.44022311  0.88812061  0.86129741    -0.12100
C1647       C  0.40364345  0.88659971  0.86204098     0.02000
C1648       C  0.39338518  0.90812194  0.85254260    -0.00300
C1649       C  0.42143922  0.93040363  0.84232108    -0.12000
C1650       C  0.45847740  0.93183667  0.84153532     0.01900
H1651       H  0.44694428  0.87176175  0.86897913     0.14900
H1652       H  0.41539746  0.94793460  0.83502239     0.14900
C1653       C  0.48512600  0.95760778  0.83110915     0.36500
C1654       C  0.37718423  0.86212547  0.87282618     0.36400
N1655       N  0.50549869  0.97881965  0.82259853    -0.43800
N1656       N  0.35592335  0.84189273  0.88133286    -0.43800
C1657       C  0.71159788  0.00190172  0.77504161    -0.00200
C1658       C  0.69554013  0.96416495  0.76902962    -0.12100
C1659       C  0.67191332  0.95447851  0.75714775     0.02000
C1660       C  0.66388565  0.98295609  0.75099337    -0.00300
C1661       C  0.68020328  0.02084696  0.75686215    -0.12000
C1662       C  0.70335706  0.03035489  0.76890246     0.01900
H1663       H  0.70156608  0.94207282  0.77358788     0.14900
H1664       H  0.67359756  0.04260124  0.75232789     0.14900
C1665       C  0.71589769  0.06852594  0.77516144     0.36500
C1666       C  0.65716399  0.91538383  0.75128821     0.36400
N1667       N  0.72585051  0.09911531  0.78016831    -0.43800
N1668       N  0.64529608  0.88413685  0.74654209    -0.43800
C1669       C  0.82750817  0.08702330  0.80651894    -0.00200
C1670       C  0.83400370  0.11412764  0.81720668    -0.12100
C1671       C  0.86942381  0.15092410  0.81832252     0.02000
C1672       C  0.89954378  0.16259649  0.80820439    -0.00300
C1673       C  0.89363031  0.13432826  0.79801269    -0.12000
C1674       C  0.85892966  0.09744163  0.79712286     0.01900
H1675       H  0.81188394  0.10689436  0.82501668     0.14900
H1676       H  0.91658536  0.14140288  0.79043940     0.14900
C1677       C  0.85662822  0.07099097  0.78625403     0.36500
C1678       C  0.87352822  0.17370530  0.83051296     0.36400
N1679       N  0.85496963  0.04985877  0.77757201    -0.43800
N1680       N  0.87551784  0.19066194  0.84054321    -0.43800
C1681       C  0.61148335  0.94458762  0.83593499    -0.00200
C1682       C  0.62585178  0.98363022  0.83093108    -0.12100
C1683       C  0.66144756  0.00348373  0.82349715     0.02000
C1684       C  0.68330164  0.98417725  0.82081046    -0.00300
C1685       C  0.66876911  0.94522114  0.82558094    -0.12000
C1686       C  0.63378155  0.92555326  0.83318186     0.01900
H1687       H  0.60960249  0.99901347  0.83303036     0.14900
H1688       H  0.68488554  0.92992113  0.82336563     0.14900
C1689       C  0.62227738  0.88586516  0.83783675     0.36500
C1690       C  0.67397079  0.04288932  0.81825395     0.36400
N1691       N  0.61488630  0.85448841  0.84154624    -0.43800
N1692       N  0.68389874  0.07443566  0.81401550    -0.43800
C1693       C  0.45580913  0.59722900  0.85349790    -0.00200
C1694       C  0.42256452  0.59301355  0.86061266    -0.12100
C1695       C  0.38689045  0.55700764  0.86112732     0.02000
C1696       C  0.38189988  0.52336944  0.85364732    -0.00300
C1697       C  0.41558805  0.52668881  0.84708790    -0.12000
C1698       C  0.45248305  0.56218569  0.84755630     0.01900
H1699       H  0.42506081  0.61757339  0.86666908     0.14900
H1700       H  0.41439192  0.50071324  0.84254968     0.14900
C1701       C  0.48664266  0.55951326  0.84347006     0.36500
C1702       C  0.35713279  0.55516808  0.87040928     0.36400
N1703       N  0.51381824  0.55669058  0.84037802    -0.43800
N1704       N  0.33374136  0.55397160  0.87798178    -0.43800
C1705       C  0.53057932  0.82331500  0.85657671    -0.00200
C1706       C  0.53362770  0.80780773  0.86935220    -0.12100
C1707       C  0.53003999  0.76993976  0.87026958     0.02000
C1708       C  0.52537038  0.74788090  0.85818579    -0.00300
C1709       C  0.52213688  0.76337052  0.84540972    -0.12000
C1710       C  0.52400373  0.80044598  0.84455642     0.01900
H1711       H  0.53731657  0.82468709  0.87866636     0.14900
H1712       H  0.51805482  0.74638781  0.83609022     0.14900
C1713       C  0.52005544  0.81499675  0.83121436     0.36500
C1714       C  0.52773208  0.75297926  0.88375134     0.36400
N1715       N  0.51691712  0.82692053  0.82057220    -0.43800
N1716       N  0.52489481  0.73923798  0.89460849    -0.43800
C1717       C  0.70733885  0.74733126  0.78129393    -0.00200
C1718       C  0.69646679  0.77088935  0.77341659    -0.12100
C1719       C  0.67454829  0.75646805  0.76119885     0.02000
C1720       C  0.66256045  0.71740806  0.75673737    -0.00300
C1721       C  0.67404876  0.69402814  0.76445794    -0.12000
C1722       C  0.69596875  0.70846364  0.77671528     0.01900
H1723       H  0.70555039  0.80095771  0.77674998     0.14900
H1724       H  0.66468039  0.66388809  0.76116452     0.14900
C1725       C  0.70444551  0.68202216  0.78476752     0.36500
C1726       C  0.66606573  0.78289667  0.75313327     0.36400
N1727       N  0.71124349  0.66087640  0.79124553    -0.43800
N1728       N  0.65944017  0.80402894  0.74657487    -0.43800
C1729       C  0.82132192  0.78034434  0.81383218    -0.00200
C1730       C  0.84998219  0.80220259  0.80374848    -0.12100
C1731       C  0.88644272  0.80343631  0.80322270     0.02000
C1732       C  0.89654201  0.78275091  0.81312929    -0.00300
C1733       C  0.86892222  0.76222410  0.82363366    -0.12000
C1734       C  0.83196009  0.76080609  0.82415025     0.01900
H1735       H  0.84329323  0.81793930  0.79580900     0.14900
H1736       H  0.87535487  0.74631152  0.83148146     0.14900
C1737       C  0.80695313  0.73875386  0.83551573     0.36500
C1738       C  0.91249022  0.82571087  0.79201368     0.36400
N1739       N  0.78816710  0.72067609  0.84486063    -0.43800
N1740       N  0.93329448  0.84359857  0.78304442    -0.43800
C1741       C  0.75409943  0.86210201  0.80698781    -0.00200
C1742       C  0.76275195  0.88157074  0.79416594    -0.12100
C1743       C  0.76456344  0.91851577  0.79264324     0.02000
C1744       C  0.75843771  0.93679201  0.80414917    -0.00300
C1745       C  0.74982636  0.91732764  0.81695268    -0.12000
C1746       C  0.74677039  0.87987005  0.81838180     0.01900
H1747       H  0.76817085  0.86789421  0.78534695     0.14900
H1748       H  0.74528564  0.93133916  0.82584468     0.14900
C1749       C  0.73513488  0.85993172  0.83154556     0.36500
C1750       C  0.77294564  0.93725576  0.77923814     0.36400
N1751       N  0.72523334  0.84418491  0.84212615    -0.43800
N1752       N  0.77952507  0.95223539  0.76847960    -0.43800
C1753       C  0.67459591  0.73748103  0.82625184    -0.00200
C1754       C  0.63868950  0.71986442  0.81879049    -0.12100
C1755       C  0.60200660  0.70180302  0.82551295     0.02000
C1756       C  0.60061273  0.69985310  0.84007378    -0.00300
C1757       C  0.63651445  0.71661848  0.84751037    -0.12000
C1758       C  0.67313782  0.73591969  0.84082524     0.01900
H1759       H  0.63916992  0.72068895  0.80760921     0.14900
H1760       H  0.63608190  0.71538788  0.85869128     0.14900
C1761       C  0.70841455  0.75605513  0.84927245     0.36500
C1762       C  0.56662561  0.68798249  0.81719560     0.36400
N1763       N  0.73659083  0.77242801  0.85607608    -0.43800
N1764       N  0.53833493  0.67709547  0.81049356    -0.43800
C1765       C  0.67596890  0.69055905  0.98410028    -0.00200
C1766       C  0.70897271  0.69597957  0.99181303    -0.12100
C1767       C  0.70987608  0.69915146  0.00613188     0.02000
C1768       C  0.67734386  0.69733853  0.01313024    -0.00300
C1769       C  0.64266630  0.68794707  0.00564420    -0.12000
C1770       C  0.64165832  0.68434715  0.99116931     0.01900
H1771       H  0.73503083  0.69941577  0.98657551     0.14900
H1772       H  0.61721341  0.68559464  0.01098361     0.14900
C1773       C  0.60602851  0.67655383  0.98385030     0.36500
C1774       C  0.74495719  0.70475336  0.01338448     0.36400
N1775       N  0.57731741  0.67000914  0.97801136    -0.43800
N1776       N  0.77295972  0.70914374  0.01921726    -0.43800
C1777       C  0.57308509  0.67686803  0.88496721    -0.00200
C1778       C  0.59336580  0.71457495  0.89106688    -0.12100
C1779       C  0.61748995  0.72174795  0.90268884     0.02000
C1780       C  0.62256624  0.69091183  0.90843654    -0.00300
C1781       C  0.60256923  0.65310704  0.90241337    -0.12000
C1782       C  0.57851801  0.64597135  0.89065184     0.01900
H1783       H  0.59034526  0.73882685  0.88682933     0.14900
H1784       H  0.60686639  0.62947627  0.90660508     0.14900
C1785       C  0.56232261  0.60755557  0.88414830     0.36500
C1786       C  0.63558801  0.76089990  0.90878464     0.36400
N1787       N  0.54940765  0.57679483  0.87891356    -0.43800
N1788       N  0.64997047  0.79219026  0.91369869    -0.43800
C1789       C  0.67405311  0.02001429  0.01136575    -0.00200
C1790       C  0.70658085  0.05124585  0.00465516    -0.12100
C1791       C  0.70845522  0.05349538  0.99029686     0.02000
C1792       C  0.67770376  0.02364074  0.98235344    -0.00300
C1793       C  0.64345204  0.99447370  0.98895798    -0.12000
C1794       C  0.64136105  0.99246636  0.00342776     0.01900
H1795       H  0.73131518  0.07337623  0.01066796     0.14900
H1796       H  0.61959342  0.97156922  0.98286749     0.14900
C1797       C  0.60697367  0.96008350  0.00978081     0.36500
C1798       C  0.74245997  0.08647129  0.98391997     0.36400
N1799       N  0.57934091  0.93407486  0.01484125    -0.43800
N1800       N  0.76944032  0.11297754  0.97875233    -0.43800
C1801       C  0.70311865  0.82918470  0.94812726    -0.00200
C1802       C  0.66705436  0.82880542  0.94961286    -0.12100
C1803       C  0.66525289  0.86390350  0.94924915     0.02000
C1804       C  0.70031451  0.90085252  0.94749113    -0.00300
C1805       C  0.73668516  0.90146026  0.94660899    -0.12000
C1806       C  0.73842653  0.86617620  0.94692409     0.01900
H1807       H  0.63967461  0.80072930  0.95059097     0.14900
H1808       H  0.76390635  0.92958215  0.94543619     0.14900
C1809       C  0.77679989  0.86907253  0.94589206     0.36500
C1810       C  0.62662554  0.86050482  0.95014569     0.36400
N1811       N  0.80762729  0.87155214  0.94508371    -0.43800
N1812       N  0.59563383  0.85769374  0.95081582    -0.43800
C1813       C  0.58528259  0.94164248  0.88187213    -0.00200
C1814       C  0.56541693  0.93573606  0.89447506    -0.12100
C1815       C  0.58638272  0.95051277  0.90688270     0.02000
C1816       C  0.62819663  0.97203772  0.90679869    -0.00300
C1817       C  0.64792549  0.97856603  0.89420596    -0.12000
C1818       C  0.62714527  0.96367556  0.88185191     0.01900
H1819       H  0.53332621  0.91858313  0.89468760     0.14900
H1820       H  0.68005375  0.99529970  0.89399436     0.14900
C1821       C  0.65030795  0.97266985  0.86946708     0.36500
C1822       C  0.56424374  0.94133030  0.91954171     0.36400
N1823       N  0.67058140  0.98069200  0.85994184    -0.43800
N1824       N  0.54646188  0.93377081  0.92968663    -0.43800
C1825       C  0.27784122  0.00205831  0.01129024    -0.00200
C1826       C  0.31060346  0.03318724  0.00458730    -0.12100
C1827       C  0.31173687  0.03585277  0.99007111     0.02000
C1828       C  0.27980928  0.00679807  0.98221808    -0.00300
C1829       C  0.24895080  0.97414913  0.98899701    -0.12000
C1830       C  0.24763671  0.97165374  0.00334508     0.01900
H1831       H  0.33379295  0.05681511  0.01066180     0.14900
H1832       H  0.22468119  0.95119057  0.98304631     0.14900
C1833       C  0.21408068  0.93820779  0.00971572     0.36500
C1834       C  0.34390821  0.07021474  0.98358433     0.36400
N1835       N  0.18719780  0.91150308  0.01483957    -0.43800
N1836       N  0.36958253  0.09779672  0.97834724    -0.43800
C1837       C  0.31329541  0.94579975  0.88325729    -0.00200
C1838       C  0.29649603  0.97023388  0.88124859    -0.12100
C1839       C  0.29002355  0.98918585  0.89236838     0.02000
C1840       C  0.29976786  0.98326840  0.90595778    -0.00300
C1841       C  0.31779283  0.95990453  0.90790173    -0.12000
C1842       C  0.32466933  0.94131059  0.89676342     0.01900
H1843       H  0.28868347  0.97487060  0.87089743     0.14900
H1844       H  0.32529448  0.95489667  0.91824947     0.14900
C1845       C  0.34168546  0.91638544  0.89973208     0.36500
C1846       C  0.27392927  0.01499249  0.88944615     0.36400
N1847       N  0.35560594  0.89682164  0.90244000    -0.43800
N1848       N  0.26124808  0.03586491  0.88710648    -0.43800
C1849       C  0.27709565  0.32264906  0.98485226    -0.00200
C1850       C  0.24847037  0.32920653  0.99106254    -0.12100
C1851       C  0.24495133  0.32835164  0.00540602     0.02000
C1852       C  0.27120474  0.32197901  0.01375620    -0.00300
C1853       C  0.30179590  0.31841516  0.00755860    -0.12000
C1854       C  0.30430306  0.31775673  0.99313908     0.01900
H1855       H  0.22702979  0.33220146  0.98465930     0.14900
H1856       H  0.32152281  0.31269879  0.01393277     0.14900
C1857       C  0.33232571  0.30825259  0.98706768     0.36500
C1858       C  0.21291071  0.33199821  0.01130120     0.36400
N1859       N  0.35439003  0.30018847  0.98213132    -0.43800
N1860       N  0.18712583  0.33462922  0.01605697    -0.43800
C1861       C  0.26338705  0.19445641  0.93764015    -0.00200
C1862       C  0.22960205  0.15991645  0.93298900    -0.12100
C1863       C  0.22854507  0.12338300  0.93253753     0.02000
C1864       C  0.26188226  0.12058128  0.93694127    -0.00300
C1865       C  0.29630778  0.15539641  0.94105800    -0.12000
C1866       C  0.29744133  0.19214176  0.94139213     0.01900
H1867       H  0.20340156  0.16119438  0.92984678     0.14900
H1868       H  0.32224910  0.15383075  0.94433629     0.14900
C1869       C  0.33372214  0.22653721  0.94586199     0.36500
C1870       C  0.19270934  0.08956921  0.92742068     0.36400
N1871       N  0.36295987  0.25402992  0.94938785    -0.43800
N1872       N  0.16391564  0.06271836  0.92325926    -0.43800
C1873       C  0.28262174  0.36301349  0.90905152    -0.00200
C1874       C  0.31737307  0.37390219  0.90169725    -0.12100
C1875       C  0.32550010  0.39623069  0.88950530     0.02000
C1876       C  0.29852475  0.40806956  0.88456478    -0.00300
C1877       C  0.26408408  0.39759539  0.89203389    -0.12000
C1878       C  0.25622616  0.37573310  0.90428914     0.01900
H1879       H  0.33766427  0.36412934  0.90529323     0.14900
H1880       H  0.24370001  0.40725342  0.88842708     0.14900
C1881       C  0.22204295  0.36863154  0.91222339     0.36500
C1882       C  0.36094521  0.40534211  0.88200708     0.36400
N1883       N  0.19502154  0.36333063  0.91871636    -0.43800
N1884       N  0.38940774  0.41279626  0.87601023    -0.43800
C1885       C  0.95544676  0.31780188  0.98202856    -0.00200
C1886       C  0.98944883  0.34759951  0.98869088    -0.12100
C1887       C  0.99230077  0.34913706  0.00317183     0.02000
C1888       C  0.96041384  0.32095994  0.01115011    -0.00300
C1889       C  0.92526231  0.29347722  0.00445686    -0.12000
C1890       C  0.92249714  0.29170169  0.99005852     0.01900
H1891       H  0.01507421  0.36749742  0.98261813     0.14900
H1892       H  0.90040589  0.27200611  0.01051763     0.14900
C1893       C  0.88598593  0.26179880  0.98377679     0.36500
C1894       C  0.02965126  0.37680314  0.00949380     0.36400
N1895       N  0.85677682  0.23784623  0.97873277    -0.43800
N1896       N  0.05972860  0.39878045  0.01454114    -0.43800
C1897       C  0.06897179  0.28337658  0.94952408    -0.00200
C1898       C  0.10332065  0.31810837  0.95370025    -0.12100
C1899       C  0.14027217  0.32032067  0.95374561     0.02000
C1900       C  0.14335926  0.28702713  0.94963262    -0.00300
C1901       C  0.10871888  0.25152666  0.94627845    -0.12000
C1902       C  0.07177633  0.24943667  0.94609486     0.01900
H1903       H  0.10161889  0.34426216  0.95651715     0.14900
H1904       H  0.11059463  0.22563613  0.94322579     0.14900
C1905       C  0.03787239  0.21265592  0.94166128     0.36500
C1906       C  0.17438200  0.35751185  0.95776144     0.36400
N1907       N  0.01077251  0.18323766  0.93803194    -0.43800
N1908       N  0.20174621  0.38732943  0.96092932    -0.43800
C1909       C  0.86127968  0.19115689  0.93283548    -0.00200
C1910       C  0.86182010  0.15760786  0.92774022    -0.12100
C1911       C  0.82751968  0.12033136  0.92750524     0.02000
C1912       C  0.79174274  0.11588584  0.93274383    -0.00300
C1913       C  0.79042325  0.14994758  0.93678370    -0.12000
C1914       C  0.82472122  0.18743657  0.93683599     0.01900
H1915       H  0.88947230  0.16026911  0.92426289     0.14900
H1916       H  0.76300861  0.14704747  0.94062880     0.14900
C1917       C  0.82181766  0.22079595  0.94194084     0.36500
C1918       C  0.83013121  0.08724449  0.92191281     0.36400
N1919       N  0.81928671  0.24743095  0.94602915    -0.43800
N1920       N  0.83213993  0.06076355  0.91736874    -0.43800
C1921       C  0.04458886  0.40462555  0.88237638    -0.00200
C1922       C  0.00661389  0.39616233  0.88660175    -0.12100
C1923       C  0.98866162  0.37262646  0.89827811     0.02000
C1924       C  0.00876492  0.35705572  0.90598696    -0.00300
C1925       C  0.04626367  0.36474235  0.90161220    -0.12000
C1926       C  0.06434945  0.38839593  0.89000920     0.01900
H1927       H  0.99066402  0.40761771  0.88065899     0.14900
H1928       H  0.06202227  0.35294864  0.90750280     0.14900
C1929       C  0.10387953  0.39682239  0.88666729     0.36500
C1930       C  0.94897072  0.36336147  0.90175386     0.36400
N1931       N  0.13552071  0.40314292  0.88414998    -0.43800
N1932       N  0.91703417  0.35560027  0.90451868    -0.43800
C1933       C  0.96577901  0.70096350  0.98542529    -0.00200
C1934       C  0.98537981  0.68398622  0.99260124    -0.12100
C1935       C  0.98664359  0.68401938  0.00714404     0.02000
C1936       C  0.96791080  0.70116638  0.01466140    -0.00300
C1937       C  0.94607104  0.71545323  0.00738692    -0.12000
C1938       C  0.94478806  0.71544766  0.99300454     0.01900
H1939       H  0.00140945  0.67259044  0.98687171     0.14900
H1940       H  0.93046936  0.72762740  0.01296355     0.14900
C1941       C  0.92176610  0.73081161  0.98628004     0.36500
C1942       C  0.00906326  0.66833872  0.01401229     0.36400
N1943       N  0.90342670  0.74312037  0.98084695    -0.43800
N1944       N  0.02702467  0.65577543  0.01955248    -0.43800
C1945       C  0.08194708  0.83159957  0.94393265    -0.00200
C1946       C  0.08089955  0.86477345  0.93850148    -0.12100
C1947       C  0.11542554  0.90165050  0.93728702     0.02000
C1948       C  0.15225767  0.90570247  0.94136136    -0.00300
C1949       C  0.15320007  0.87265743  0.94697462    -0.12000
C1950       C  0.11859131  0.83602752  0.94845811     0.01900
H1951       H  0.05296644  0.86191881  0.93507252     0.14900
H1952       H  0.18108743  0.87553450  0.95047720     0.14900
C1953       C  0.12175443  0.80414402  0.95504930     0.36500
C1954       C  0.11181056  0.93446183  0.93179172     0.36400
N1955       N  0.12443930  0.77882020  0.96043921    -0.43800
N1956       N  0.10861478  0.96065250  0.92745860    -0.43800
C1957       C  0.86560331  0.70565105  0.93599161    -0.00200
C1958       C  0.86242835  0.73532276  0.92864325    -0.12100
C1959       C  0.82670904  0.73578719  0.92797567     0.02000
C1960       C  0.79288769  0.70610412  0.93484086    -0.00300
C1961       C  0.79528955  0.67489637  0.94143331    -0.12000
C1962       C  0.83120393  0.67445641  0.94209320     0.01900
H1963       H  0.88835725  0.75904108  0.92366979     0.14900
H1964       H  0.76962037  0.65189475  0.94674423     0.14900
C1965       C  0.83238717  0.64316244  0.94988714     0.36500
C1966       C  0.82601001  0.76755370  0.92031132     0.36400
N1967       N  0.83338359  0.61812886  0.95615446    -0.43800
N1968       N  0.82553292  0.79303870  0.91416654    -0.43800
C1969       C  0.01631263  0.69127273  0.90870628    -0.00200
C1970       C  0.04274251  0.67660106  0.91029621    -0.12100
C1971       C  0.06322302  0.67354037  0.89894666     0.02000
C1972       C  0.05758288  0.68559300  0.88572106    -0.00300
C1973       C  0.03094594  0.69972682  0.88410390    -0.12000
C1974       C  0.01007939  0.70225803  0.89533249     0.01900
H1975       H  0.04824066  0.66847900  0.92047205     0.14900
H1976       H  0.02554681  0.70787323  0.87391079     0.14900
C1977       C  0.98178772  0.71538136  0.89262783     0.36500
C1978       C  0.09069567  0.65911695  0.90120001     0.36400
N1979       N  0.95906652  0.72576843  0.89034674    -0.43800
N1980       N  0.11260773  0.64742465  0.90297299    -0.43800
C1981       C  0.32441114  0.03864032  0.34737950    -0.00200
C1982       C  0.32120023  0.00587897  0.34011941    -0.12100
C1983       C  0.32325564  0.00657888  0.32561893     0.02000
C1984       C  0.32883829  0.04063401  0.31828919    -0.00300
C1985       C  0.32826458  0.07154806  0.32554962    -0.12000
C1986       C  0.32574886  0.07067309  0.33990892     0.01900
H1987       H  0.31977706  0.98096122  0.34577861     0.14900
H1988       H  0.33111619  0.09725640  0.32000142     0.14900
C1989       C  0.32533418  0.10346784  0.34677596     0.36500
C1990       C  0.32258522  0.97347244  0.31864407     0.36400
N1991       N  0.32487499  0.12957024  0.35233504    -0.43800
N1992       N  0.32199492  0.94695134  0.31300903    -0.43800
C1993       C  0.33713506  0.32775817  0.34610438    -0.00200
C1994       C  0.35872653  0.31376416  0.33878786    -0.12100
C1995       C  0.36360149  0.31867075  0.32454117     0.02000
C1996       C  0.34665621  0.33821116  0.31710318    -0.00300
C1997       C  0.32314503  0.35031240  0.32424148    -0.12000
C1998       C  0.31831738  0.34535042  0.33862892     0.01900
H1999       H  0.37270696  0.29940764  0.34426882     0.14900
H2000       H  0.30939256  0.36467694  0.31863946     0.14900
C2001       C  0.29509550  0.35980528  0.34541193     0.36500
C2002       C  0.38589921  0.30273292  0.31793088     0.36400
N2003       N  0.27636987  0.37140191  0.35078617    -0.43800
N2004       N  0.40375352  0.28986499  0.31272095    -0.43800
C2005       C  0.32927264  0.21663616  0.39601539    -0.00200
C2006       C  0.35359978  0.21156026  0.40566204    -0.12100
C2007       C  0.35470760  0.17607204  0.40634913     0.02000
C2008       C  0.33102502  0.14470277  0.39726094    -0.00300
C2009       C  0.30439405  0.14854045  0.38836976    -0.12000
C2010       C  0.30352802  0.18423391  0.38757970     0.01900
H2011       H  0.37296632  0.23598027  0.41236825     0.14900
H2012       H  0.28622853  0.12463050  0.38129997     0.14900
C2013       C  0.27869454  0.18776856  0.37714232     0.36500
C2014       C  0.38084044  0.17291219  0.41633343     0.36400
N2015       N  0.25889925  0.19045257  0.36869562    -0.43800
N2016       N  0.40173047  0.17044321  0.42437057    -0.43800
C2017       C  0.63252725  0.63209423  0.31764143    -0.00200
C2018       C  0.64507016  0.66745792  0.32510563    -0.12100
C2019       C  0.64597488  0.66742141  0.33964441     0.02000
C2020       C  0.63422299  0.63152299  0.34686431    -0.00300
C2021       C  0.62008076  0.59617387  0.33936798    -0.12000
C2022       C  0.61887392  0.59601020  0.32500872     0.01900
H2023       H  0.65550606  0.69531332  0.31959998     0.14900
H2024       H  0.60984308  0.56816701  0.34477864     0.14900
C2025       C  0.60303273  0.55797138  0.31820865     0.36500
C2026       C  0.66083493  0.70465391  0.34684408     0.36400
N2027       N  0.59034897  0.52745027  0.31281867    -0.43800
N2028       N  0.67279159  0.73445445  0.35266649    -0.43800
C2029       C  0.45859408  0.43335840  0.38546850    -0.00200
C2030       C  0.45795783  0.46862757  0.38265551    -0.12100
C2031       C  0.49279382  0.50531830  0.38235089     0.02000
C2032       C  0.52956313  0.50741707  0.38511065    -0.00300
C2033       C  0.53045136  0.47194804  0.38725249    -0.12000
C2034       C  0.49551991  0.43508037  0.38733704     0.01900
H2035       H  0.42996154  0.46775285  0.38084518     0.14900
H2036       H  0.55850938  0.47295926  0.38905376     0.14900
C2037       C  0.49874522  0.39981010  0.38932695     0.36500
C2038       C  0.48942797  0.54004841  0.37923614     0.36400
N2039       N  0.50141584  0.37156767  0.39083861    -0.43800
N2040       N  0.48660321  0.56777238  0.37668919    -0.43800
C2041       C  0.65743648  0.04943930  0.31838056    -0.00200
C2042       C  0.68505190  0.08323469  0.32568844    -0.12100
C2043       C  0.68634578  0.08327230  0.34008319     0.02000
C2044       C  0.65939321  0.04904174  0.34745571    -0.00300
C2045       C  0.63432508  0.01408383  0.34019170    -0.12000
C2046       C  0.63314193  0.01400027  0.32571230     0.01900
H2047       H  0.70489440  0.11023456  0.32014366     0.14900
H2048       H  0.61370837  0.98760829  0.34581434     0.14900
C2049       C  0.60464593  0.97819069  0.31874233     0.36500
C2050       C  0.71530495  0.11898082  0.34704841     0.36400
N2051       N  0.58180449  0.94952802  0.31312179    -0.43800
N2052       N  0.73867238  0.14752387  0.35260047    -0.43800
C2053       C  0.53338765  0.05996805  0.38629058    -0.00200
C2054       C  0.53303088  0.09551178  0.38375750    -0.12100
C2055       C  0.49730610  0.09617195  0.38353252     0.02000
C2056       C  0.46118567  0.06057902  0.38573067    -0.00300
C2057       C  0.46181630  0.02525356  0.38837373    -0.12000
C2058       C  0.49739717  0.02477353  0.38890813     0.01900
H2059       H  0.56066726  0.12275079  0.38189753     0.14900
H2060       H  0.43443770  0.99801096  0.39053475     0.14900
C2061       C  0.49628605  0.98838903  0.39315100     0.36500
C2062       C  0.49863868  0.13355250  0.38089728     0.36400
N2063       N  0.49562484  0.95949038  0.39671377    -0.43800
N2064       N  0.49968307  0.16352247  0.37883855    -0.43800
C2065       C  0.94025315  0.32681605  0.34749789    -0.00200
C2066       C  0.90690497  0.30306805  0.33930336    -0.12100
C2067       C  0.90825381  0.30619197  0.32497966     0.02000
C2068       C  0.94395780  0.33309761  0.31835126    -0.00300
C2069       C  0.97838911  0.35464803  0.32639269    -0.12000
C2070       C  0.97674634  0.35204870  0.34092086     0.01900
H2071       H  0.87885019  0.28299966  0.34414212     0.14900
H2072       H  0.00595415  0.37524194  0.32139801     0.14900
C2073       C  0.01207989  0.37759608  0.34874012     0.36500
C2074       C  0.87189599  0.28199092  0.31739395     0.36400
N2075       N  0.04045670  0.39824744  0.35496729    -0.43800
N2076       N  0.84268230  0.26289172  0.31135469    -0.43800
C2077       C  0.82145351  0.22275727  0.39749333    -0.00200
C2078       C  0.78847125  0.22144521  0.40380931    -0.12100
C2079       C  0.75197673  0.18625206  0.40427946     0.02000
C2080       C  0.74762199  0.15144300  0.39803248    -0.00300
C2081       C  0.78133015  0.15185916  0.39274298    -0.12000
C2082       C  0.81814392  0.18699989  0.39252166     0.01900
H2083       H  0.79087993  0.24834842  0.40809801     0.14900
H2084       H  0.77856877  0.12517862  0.38812469     0.14900
C2085       C  0.85124183  0.18574634  0.38645023     0.36500
C2086       C  0.71954545  0.18691033  0.41118560     0.36400
N2087       N  0.87776979  0.18458651  0.38164217    -0.43800
N2088       N  0.69358920  0.18729655  0.41678533    -0.43800
C2089       C  0.93796152  0.63333023  0.31966893    -0.00200
C2090       C  0.92383709  0.59734140  0.32685706    -0.12100
C2091       C  0.92064093  0.59576383  0.34117667     0.02000
C2092       C  0.93200029  0.63086032  0.34874135    -0.00300
C2093       C  0.94788206  0.66733124  0.34170765    -0.12000
C2094       C  0.95052452  0.66877984  0.32721524     0.01900
H2095       H  0.91446347  0.56996158  0.32121930     0.14900
H2096       H  0.95641130  0.69433511  0.34745790     0.14900
C2097       C  0.96332478  0.70632803  0.32034471     0.36500
C2098       C  0.90565319  0.55748106  0.34781924     0.36400
N2099       N  0.97327546  0.73637909  0.31482695    -0.43800
N2100       N  0.89350408  0.52666135  0.35301561    -0.43800
C2101       C  0.90782887  0.43398746  0.38369918    -0.00200
C2102       C  0.87674783  0.43492259  0.39059989    -0.12100
C2103       C  0.87566805  0.47027166  0.39181487     0.02000
C2104       C  0.90615411  0.50565372  0.38594984    -0.00300
C2105       C  0.93622371  0.50426986  0.37849313    -0.12000
C2106       C  0.93719540  0.46888213  0.37723801     0.01900
H2107       H  0.85401851  0.40828856  0.39559838     0.14900
H2108       H  0.95926744  0.53102711  0.37365528     0.14900
C2109       C  0.96848312  0.46935071  0.36918027     0.36500
C2110       C  0.84402266  0.46947309  0.39974206     0.36400
N2111       N  0.99348785  0.46975660  0.36267999    -0.43800
N2112       N  0.81868450  0.46876360  0.40612560    -0.43800
C2113       C  0.81550867  0.62741823  0.39824949    -0.00200
C2114       C  0.81466606  0.66047770  0.39256381    -0.12100
C2115       C  0.77948191  0.66214666  0.39204395     0.02000
C2116       C  0.74424729  0.63035663  0.39745499    -0.00300
C2117       C  0.74588761  0.59882525  0.40404912    -0.12000
C2118       C  0.78076437  0.59685023  0.40440684     0.01900
H2119       H  0.84109187  0.68424093  0.38785332     0.14900
H2120       H  0.71925901  0.57450489  0.40845599     0.14900
C2121       C  0.77913305  0.56214050  0.41069083     0.36500
C2122       C  0.78017429  0.69569798  0.38518671     0.36400
N2123       N  0.77741676  0.53407642  0.41565894    -0.43800
N2124       N  0.78080840  0.72258742  0.37965959    -0.43800
C2125       C  0.03272593  0.40960593  0.44792550    -0.00200
C2126       C  0.02975521  0.37484215  0.44222842    -0.12100
C2127       C  0.00697521  0.35733911  0.43034929     0.02000
C2128       C  0.98586953  0.37414670  0.42407282    -0.00300
C2129       C  0.98839715  0.40852205  0.42982361    -0.12000
C2130       C  0.01183413  0.42656058  0.44149287     0.01900
H2131       H  0.04489398  0.36088528  0.44717139     0.14900
H2132       H  0.97265230  0.42200606  0.42496550     0.14900
C2133       C  0.01502595  0.46330341  0.44616269     0.36500
C2134       C  0.00477152  0.32152568  0.42510339     0.36400
N2135       N  0.01714627  0.49262802  0.44984937    -0.43800
N2136       N  0.00302388  0.29283051  0.42088324    -0.43800
C2137       C  0.00328976  0.38935236  0.49276214    -0.00200
C2138       C  0.96752249  0.37044811  0.48523892    -0.12100
C2139       C  0.93064763  0.35267466  0.49184798     0.02000
C2140       C  0.92881700  0.35331132  0.50639170    -0.00300
C2141       C  0.96471162  0.37162505  0.51389949    -0.12000
C2142       C  0.00157876  0.38911407  0.50729609     0.01900
H2143       H  0.96835309  0.37055762  0.47405614     0.14900
H2144       H  0.96422138  0.37315275  0.52501597     0.14900
C2145       C  0.03699374  0.40848008  0.51570141     0.36500
C2146       C  0.89542325  0.33679889  0.48334923     0.36400
N2147       N  0.06526130  0.42376010  0.52250875    -0.43800
N2148       N  0.86732766  0.32427776  0.47646009    -0.43800
C2149       C  0.30388686  0.40048197  0.44728604    -0.00200
C2150       C  0.28859321  0.40414901  0.43445244    -0.12100
C2151       C  0.29314068  0.38673581  0.42244677     0.02000
C2152       C  0.31375974  0.36531568  0.42305922    -0.00300
C2153       C  0.32834031  0.36104158  0.43588989    -0.12000
C2154       C  0.32352589  0.37802618  0.44788926     0.01900
H2155       H  0.27365233  0.42142702  0.43370898     0.14900
H2156       H  0.34393009  0.34435692  0.43657809     0.14900
C2157       C  0.33832454  0.37048609  0.46058332     0.36500
C2158       C  0.27756981  0.39259980  0.40961472     0.36400
N2159       N  0.35089178  0.36366096  0.47044571    -0.43800
N2160       N  0.26503696  0.39724088  0.39932556    -0.43800
C2161       C  0.22243743  0.43815568  0.47840399    -0.00200
C2162       C  0.18686404  0.40413257  0.47436772    -0.12100
C2163       C  0.15004028  0.40269014  0.47505825     0.02000
C2164       C  0.14774954  0.43637699  0.47945089    -0.00300
C2165       C  0.18216955  0.46753292  0.48555084    -0.12000
C2166       C  0.21865043  0.46812584  0.48545693     0.01900
H2167       H  0.18761839  0.37831056  0.47055179     0.14900
H2168       H  0.18089869  0.49128101  0.49085515     0.14900
C2169       C  0.25059747  0.49869062  0.49347578     0.36500
C2170       C  0.11514457  0.36610876  0.47108619     0.36400
N2171       N  0.27597359  0.52332781  0.49994589    -0.43800
N2172       N  0.08723783  0.33674014  0.46791909    -0.43800
C2173       C  0.32661729  0.40147717  0.49368656    -0.00200
C2174       C  0.30211569  0.36139112  0.49744725    -0.12100
C2175       C  0.31734357  0.34030190  0.50474679     0.02000
C2176       C  0.35777338  0.35946461  0.50860538    -0.00300
C2177       C  0.38192812  0.39965524  0.50513474    -0.12000
C2178       C  0.36695006  0.42062565  0.49775311     0.01900
H2179       H  0.27116142  0.34619249  0.49438042     0.14900
H2180       H  0.41291170  0.41485246  0.50819502     0.14900
C2181       C  0.39386603  0.46203692  0.49489012     0.36500
C2182       C  0.29056953  0.29964022  0.50866292     0.36400
N2183       N  0.41655999  0.49512013  0.49284406    -0.43800
N2184       N  0.26911276  0.26704463  0.51183229    -0.43800
C2185       C  0.30362889  0.93289999  0.44745486    -0.00200
C2186       C  0.34238189  0.95408262  0.44234008    -0.12100
C2187       C  0.35136756  0.97772040  0.43051963     0.02000
C2188       C  0.32114244  0.98077187  0.42338897    -0.00300
C2189       C  0.28229579  0.95962071  0.42829699    -0.12000
C2190       C  0.27335563  0.93640564  0.44032740     0.01900
H2191       H  0.36617202  0.95236423  0.44750409     0.14900
H2192       H  0.25908554  0.96240725  0.42299662     0.14900
C2193       C  0.23341273  0.91892096  0.44543480     0.36500
C2194       C  0.39185133  0.99751882  0.42574410     0.36400
N2195       N  0.20127958  0.90497066  0.44943027    -0.43800
N2196       N  0.42430089  0.01322461  0.42197591    -0.43800
C2197       C  0.39747544  0.18039138  0.51919478    -0.00200
C2198       C  0.36281779  0.18006185  0.52358493    -0.12100
C2199       C  0.36035721  0.21502248  0.52397640     0.02000
C2200       C  0.39366220  0.25200219  0.52043196    -0.00300
C2201       C  0.42453642  0.25062168  0.51338580    -0.12000
C2202       C  0.42620408  0.21532427  0.51242357     0.01900
H2203       H  0.33790446  0.15251132  0.52720326     0.14900
H2204       H  0.44725989  0.27689727  0.50828514     0.14900
C2205       C  0.45548398  0.21550295  0.50334911     0.36500
C2206       C  0.32331797  0.21188558  0.52808044     0.36400
N2207       N  0.47889818  0.21589924  0.49596934    -0.43800
N2208       N  0.29356810  0.20930499  0.53132659    -0.43800
C2209       C  0.35684722  0.03681656  0.50704246    -0.00200
C2210       C  0.33917975  0.00056108  0.51430921    -0.12100
C2211       C  0.32175475  0.96392103  0.50741219     0.02000
C2212       C  0.32098314  0.96281443  0.49283646    -0.00300
C2213       C  0.33759065  0.99901030  0.48555552    -0.12000
C2214       C  0.35565354  0.03568901  0.49244271     0.01900
H2215       H  0.33969332  0.00077802  0.52549516     0.14900
H2216       H  0.33716236  0.99872939  0.47436675     0.14900
C2217       C  0.37492504  0.07141541  0.48418718     0.36500
C2218       C  0.30719381  0.92817439  0.51559874     0.36400
N2219       N  0.39032535  0.09987940  0.47747778    -0.43800
N2220       N  0.29554158  0.89952900  0.52217135    -0.43800
C2221       C  0.98795425  0.64954943  0.42430277    -0.00200
C2222       C  0.00086693  0.62280533  0.42810305    -0.12100
C2223       C  0.02399489  0.62896515  0.43994043     0.02000
C2224       C  0.03394525  0.66202120  0.44842043    -0.00300
C2225       C  0.02195192  0.68948024  0.44442160    -0.12000
C2226       C  0.99905775  0.68347162  0.43244797     0.01900
H2227       H  0.99283572  0.59690679  0.42175016     0.14900
H2228       H  0.02940305  0.71497670  0.45090460     0.14900
C2229       C  0.98498433  0.71080294  0.42927846     0.36500
C2230       C  0.03844834  0.60180755  0.44278346     0.36400
N2231       N  0.97339296  0.73249421  0.42677384    -0.43800
N2232       N  0.05022913  0.58007364  0.44483259    -0.43800
C2233       C  0.07836927  0.52016766  0.47689394    -0.00200
C2234       C  0.10954079  0.55380834  0.47056362    -0.12100
C2235       C  0.11061736  0.59051114  0.47029292     0.02000
C2236       C  0.07990198  0.59441623  0.47643893    -0.00300
C2237       C  0.04833335  0.56074938  0.48254619    -0.12000
C2238       C  0.04737479  0.52398755  0.48290299     0.01900
H2239       H  0.13301744  0.55131369  0.46555300     0.14900
H2240       H  0.02466211  0.56337103  0.48735253     0.14900
C2241       C  0.01492301  0.49141554  0.48999323     0.36500
C2242       C  0.14271411  0.62308774  0.46303945     0.36400
N2243       N  0.98854978  0.46568647  0.49569257    -0.43800
N2244       N  0.16850245  0.64914402  0.45723513    -0.43800
C2245       C  0.14613440  0.74388535  0.48087117    -0.00200
C2246       C  0.17513593  0.74929142  0.47111333    -0.12100
C2247       C  0.21178523  0.78417025  0.47025030     0.02000
C2248       C  0.22161684  0.81627430  0.47934847    -0.00300
C2249       C  0.19359832  0.81052536  0.48957850    -0.12000
C2250       C  0.15650031  0.77526021  0.49045160     0.01900
H2251       H  0.16860568  0.72594027  0.46369677     0.14900
H2252       H  0.19973210  0.83357841  0.49696017     0.14900
C2253       C  0.13075897  0.77379061  0.50129017     0.36500
C2254       C  0.23835533  0.78615403  0.45954853     0.36400
N2255       N  0.11135500  0.77423999  0.51019256    -0.43800
N2256       N  0.25958839  0.78764270  0.45098786    -0.43800
C2257       C  0.84796350  0.47369550  0.52551043    -0.00200
C2258       C  0.82977005  0.44742652  0.51441084    -0.12100
C2259       C  0.83000677  0.41142688  0.51352260     0.02000
C2260       C  0.84856708  0.40061610  0.52395310    -0.00300
C2261       C  0.86720161  0.42699958  0.53497360    -0.12000
C2262       C  0.86692189  0.46309704  0.53587350     0.01900
H2263       H  0.81581191  0.45538714  0.50620604     0.14900
H2264       H  0.88137715  0.41901368  0.54309102     0.14900
C2265       C  0.88490742  0.48770512  0.54783906     0.36500
C2266       C  0.81250463  0.38707688  0.50145210     0.36400
N2267       N  0.89953128  0.50726168  0.55745872    -0.43800
N2268       N  0.79850157  0.36761865  0.49176540    -0.43800
C2269       C  0.99882073  0.63810791  0.49355987    -0.00200
C2270       C  0.96277302  0.61952361  0.48615432    -0.12100
C2271       C  0.92604709  0.59936126  0.49292150     0.02000
C2272       C  0.92452744  0.59817892  0.50751143    -0.00300
C2273       C  0.96071732  0.61590781  0.51483835    -0.12000
C2274       C  0.99735754  0.63567979  0.50810447     0.01900
H2275       H  0.96322609  0.62018719  0.47497121     0.14900
H2276       H  0.96081057  0.61383790  0.52594199     0.14900
C2277       C  0.03290501  0.65109959  0.51643474     0.36500
C2278       C  0.89079255  0.57737663  0.48460562     0.36400
N2279       N  0.06131655  0.66341647  0.52315348    -0.43800
N2280       N  0.86259433  0.55937188  0.47794142    -0.43800
C2281       C  0.56324618  0.93387996  0.44624988    -0.00200
C2282       C  0.55479948  0.91583395  0.43316695    -0.12100
C2283       C  0.57251737  0.93812243  0.42116713     0.02000
C2284       C  0.59884609  0.97957169  0.42211813    -0.00300
C2285       C  0.60819343  0.99704372  0.43523628    -0.12000
C2286       C  0.59139882  0.97477493  0.44717970     0.01900
H2287       H  0.53390681  0.88427410  0.43230152     0.14900
H2288       H  0.62921663  0.02855126  0.43623236     0.14900
C2289       C  0.60636749  0.99477605  0.46015865     0.36500
C2290       C  0.56271887  0.91770087  0.40809835     0.36400
N2291       N  0.62041942  0.01250291  0.47016022    -0.43800
N2292       N  0.55503447  0.90115309  0.39765074    -0.43800
C2293       C  0.44469210  0.88721026  0.47292528    -0.00200
C2294       C  0.42193917  0.87408509  0.48500231    -0.12100
C2295       C  0.38571867  0.87358933  0.48601490    -0.16000
C2296       C  0.37143195  0.88638510  0.47478093    -0.00300
C2297       C  0.39416601  0.89940610  0.46270120    -0.12000
C2298       C  0.43052102  0.90003167  0.46169994     0.01900
H2299       H  0.43257059  0.86416455  0.49370574     0.14900
H2300       H  0.38281082  0.90757502  0.45380931     0.14900
C2301       C  0.45153316  0.91167222  0.44878850     0.36500
C2302       C  0.36397128  0.86019101  0.49874991     0.36400
N2303       N  0.46823958  0.92081564  0.43840939    -0.43800
N2304       N  0.34637751  0.84929004  0.50892084    -0.43800
C2305       C  0.70730147  0.17794492  0.52203827    -0.00200
C2306       C  0.73224366  0.18689983  0.51049978    -0.12100
C2307       C  0.76905790  0.22256632  0.50957853     0.02000
C2308       C  0.78250995  0.25064735  0.52054040    -0.00300
C2309       C  0.75640048  0.24224234  0.53166168    -0.12000
C2310       C  0.72020920  0.20690338  0.53263775     0.01900
H2311       H  0.72310641  0.16664660  0.50189655     0.14900
H2312       H  0.76480831  0.26357702  0.53998831     0.14900
C2313       C  0.69760884  0.20108878  0.54504228     0.36500
C2314       C  0.78998226  0.22960353  0.49677056     0.36400
N2315       N  0.68018447  0.19646078  0.55513759    -0.43800
N2316       N  0.80565389  0.23418372  0.48627704    -0.43800
C2317       C  0.55746155  0.11500136  0.52666853    -0.00200
C2318       C  0.52361305  0.08298577  0.52077623    -0.12100
C2319       C  0.48782354  0.08315763  0.51941788     0.02000
C2320       C  0.48392352  0.11448131  0.52508465    -0.00300
C2321       C  0.51711220  0.14571403  0.53164952    -0.12000
C2322       C  0.55362792  0.14651984  0.53236366     0.01900
H2323       H  0.52519626  0.05798066  0.51669437     0.14900
H2324       H  0.51446806  0.16954455  0.53639136     0.14900
C2325       C  0.58567779  0.17920526  0.53962028     0.36500
C2326       C  0.45693099  0.05217789  0.51120185     0.36400
N2327       N  0.61088530  0.20570845  0.54550241    -0.43800
N2328       N  0.43303573  0.02726662  0.50438464    -0.43800
C2329       C  0.60097522  0.03646892  0.50592288    -0.00200
C2330       C  0.61583776  0.01033167  0.50766255    -0.12100
C2331       C  0.59887135  0.97369840  0.50067579     0.02000
C2332       C  0.56450792  0.96132300  0.49227664    -0.00300
C2333       C  0.54904415  0.98743147  0.49113737    -0.12000
C2334       C  0.56806513  0.02522966  0.49718657     0.01900
H2335       H  0.64134693  0.01895172  0.51434843     0.14900
H2336       H  0.52244933  0.97917490  0.48517217     0.14900
C2337       C  0.55521458  0.05307165  0.49327120     0.36500
C2338       C  0.61909841  0.95110615  0.50185234     0.36400
N2339       N  0.54513892  0.07533636  0.48979301    -0.43800
N2340       N  0.63571608  0.93335377  0.50289200    -0.43800
C2341       C  0.59314487  0.64794705  0.42250342    -0.00200
C2342       C  0.61257098  0.68560704  0.42861243    -0.12100
C2343       C  0.59771035  0.69316985  0.44067643     0.02000
C2344       C  0.56177343  0.66300887  0.44646972    -0.00300
C2345       C  0.54220818  0.62572670  0.44004983    -0.12000
C2346       C  0.55760232  0.61793762  0.42828443     0.01900
H2347       H  0.64031993  0.70846847  0.42435338     0.14900
H2348       H  0.51548537  0.60262763  0.44417735     0.14900
C2349       C  0.53582328  0.57869839  0.42228214     0.36500
C2350       C  0.62169040  0.73099025  0.44737968     0.36400
N2351       N  0.51847093  0.54727080  0.41749848    -0.43800
N2352       N  0.64092570  0.76126990  0.45277612    -0.43800
C2353       C  0.44632486  0.59360205  0.47366875    -0.00200
C2354       C  0.43814280  0.56666449  0.46279805    -0.12100
C2355       C  0.40168153  0.53105050  0.46184830     0.02000
C2356       C  0.37241037  0.52161249  0.47190984    -0.00300
C2357       C  0.38047806  0.54838861  0.48279627    -0.12000
C2358       C  0.41695746  0.58373164  0.48384800     0.01900
H2359       H  0.45924016  0.57363360  0.45490559     0.14900
H2360       H  0.35855539  0.54106270  0.49076739     0.14900
C2361       C  0.42374253  0.60836098  0.49581275     0.36500
C2362       C  0.39448052  0.50582485  0.45003413     0.36400
N2363       N  0.42905901  0.62819364  0.50536421    -0.43800
N2364       N  0.38877533  0.48580697  0.44050801    -0.43800
C2365       C  0.52813821  0.74351337  0.47837702    -0.00200
C2366       C  0.50141870  0.74788231  0.46959160    -0.12100
C2367       C  0.49932501  0.78281513  0.46888114     0.02000
C2368       C  0.52382309  0.81579820  0.47740752    -0.00300
C2369       C  0.55135861  0.81219568  0.48604126    -0.12000
C2370       C  0.55440222  0.77725777  0.48638495     0.01900
H2371       H  0.48261947  0.72387929  0.46264719     0.14900
H2372       H  0.57268199  0.83755145  0.49192652     0.14900
C2373       C  0.58766503  0.77962181  0.49388836     0.36500
C2374       C  0.47242337  0.78394435  0.45871920     0.36400
N2375       N  0.61501284  0.78279572  0.49986374    -0.43800
N2376       N  0.45064339  0.78451626  0.45061771    -0.43800
C2377       C  0.70162673  0.55063968  0.52226928    -0.00200
C2378       C  0.72729158  0.56897782  0.51103102    -0.12100
C2379       C  0.76359209  0.56900479  0.50981141     0.02000
C2380       C  0.77609445  0.55180528  0.52035632    -0.00300
C2381       C  0.74865743  0.53078978  0.53086981    -0.12000
C2382       C  0.71233241  0.52966071  0.53185789     0.01900
H2383       H  0.71930989  0.58322452  0.50300215     0.14900
H2384       H  0.75627730  0.51569538  0.53877936     0.14900
C2385       C  0.68704257  0.50712529  0.54319728     0.36500
C2386       C  0.78515793  0.58484073  0.49720415     0.36400
N2387       N  0.66678627  0.48893036  0.55224080    -0.43800
N2388       N  0.80123574  0.59717640  0.48682614    -0.43800
C2389       C  0.55254402  0.47516719  0.52822668    -0.00200
C2390       C  0.54411248  0.44830828  0.51731092    -0.12100
C2391       C  0.50803913  0.41256771  0.51648470     0.02000
C2392       C  0.47944426  0.40223597  0.52693840    -0.00300
C2393       C  0.48718509  0.42930701  0.53763849    -0.12000
C2394       C  0.52296028  0.46555655  0.53832672     0.01900
H2395       H  0.56554395  0.45566364  0.50914759     0.14900
H2396       H  0.46529719  0.42188550  0.54564809     0.14900
C2397       C  0.52764803  0.49147066  0.54963671     0.36500
C2398       C  0.50048554  0.38814313  0.50440639     0.36400
N2399       N  0.52921342  0.51136095  0.55873537    -0.43800
N2400       N  0.49443097  0.36869059  0.49469644    -0.43800
C2401       C  0.60147551  0.59976576  0.50967432    -0.00200
C2402       C  0.60644481  0.60207659  0.49525845    -0.12100
C2403       C  0.59140213  0.62112006  0.48673922     0.02000
C2404       C  0.56972925  0.63796379  0.49246586    -0.00300
C2405       C  0.56474439  0.63589804  0.50680435    -0.12000
C2406       C  0.58029082  0.61745211  0.51538897     0.01900
H2407       H  0.62204756  0.58867049  0.49048254     0.14900
H2408       H  0.54806846  0.64847612  0.51137646     0.14900
C2409       C  0.57407296  0.61839791  0.52997977     0.36500
C2410       C  0.60066270  0.62435472  0.47225213     0.36400
N2411       N  0.56787867  0.61927901  0.54158696    -0.43800
N2412       N  0.60907018  0.62657508  0.46073685    -0.43800
C2413       C  0.00049832  0.68177031  0.65137701    -0.00200
C2414       C  0.96661680  0.65475186  0.65871602    -0.12100
C2415       C  0.96679955  0.65413757  0.67326332     0.02000
C2416       C  0.00127694  0.68129077  0.68059618    -0.00300
C2417       C  0.03397443  0.70986663  0.67311987    -0.12000
C2418       C  0.03392275  0.71022512  0.65872843     0.01900
H2419       H  0.94087294  0.63266671  0.65310450     0.14900
H2420       H  0.06039442  0.73155554  0.67854805     0.14900
C2421       C  0.06884678  0.74004160  0.65172070     0.36500
C2422       C  0.93240175  0.62377509  0.68028860     0.36400
N2423       N  0.09680643  0.76399194  0.64613381    -0.43800
N2424       N  0.90476122  0.59928033  0.68586266    -0.43800
C2425       C  0.93688533  0.63484667  0.57555384    -0.00200
C2426       C  0.89958674  0.60057628  0.57715185    -0.12100
C2427       C  0.87678410  0.57966637  0.56562431     0.02000
C2428       C  0.89146306  0.59271090  0.55221978    -0.00300
C2429       C  0.92728330  0.62826600  0.55062446    -0.12000
C2430       C  0.95017154  0.64919747  0.56207317     0.01900
H2431       H  0.88877933  0.58926889  0.58740523     0.14900
H2432       H  0.93693665  0.64039753  0.54040490     0.14900
C2433       C  0.98680921  0.68565624  0.55962412     0.36500
C2434       C  0.83862177  0.54474920  0.56776782     0.36400
N2435       N  0.01612181  0.71488852  0.55762272    -0.43800
N2436       N  0.80788085  0.51693429  0.56944337    -0.43800
C2437       C  0.29623984  0.97104740  0.65129360    -0.00200
C2438       C  0.26673446  0.94065626  0.65930324    -0.12100
C2439       C  0.26996159  0.94053178  0.67363888     0.02000
C2440       C  0.30312140  0.97160005  0.68036973    -0.00300
C2441       C  0.33127343  0.00369044  0.67255419    -0.12000
C2442       C  0.32830629  0.00350121  0.65805951     0.01900
H2443       H  0.24166139  0.91584161  0.65429654     0.14900
H2444       H  0.35681131  0.02762188  0.67768497     0.14900
C2445       C  0.36014102  0.03515944  0.65043249     0.36500
C2446       C  0.23896932  0.90764503  0.68119157     0.36400
N2447       N  0.38585729  0.06051985  0.64436557    -0.43800
N2448       N  0.21415857  0.88126678  0.68721022    -0.43800
C2449       C  0.10892874  0.78172677  0.60285323    -0.00200
C2450       C  0.14019231  0.78349392  0.59517546    -0.12100
C2451       C  0.17697631  0.81834161  0.59449142     0.02000
C2452       C  0.18343258  0.85254997  0.60179951    -0.00300
C2453       C  0.15137038  0.85158020  0.60875522    -0.12000
C2454       C  0.11433904  0.81664606  0.60932745     0.01900
H2455       H  0.13617384  0.75713409  0.58989465     0.14900
H2456       H  0.15572470  0.87758037  0.61436379     0.14900
C2457       C  0.08346493  0.81687093  0.61740213     0.36500
C2458       C  0.20749336  0.81772116  0.58629636     0.36400
N2459       N  0.05876381  0.81710051  0.62389392    -0.43800
N2460       N  0.23178555  0.81708823  0.57967985    -0.43800
C2461       C  0.34334104  0.02970117  0.57826400    -0.00200
C2462       C  0.37984710  0.03619703  0.57317035    -0.12100
C2463       C  0.39516956  0.05634594  0.56069667     0.02000
C2464       C  0.37391693  0.07080086  0.55298688    -0.00300
C2465       C  0.33808307  0.06553679  0.55833303    -0.12000
C2466       C  0.32281472  0.04541325  0.57082636     0.01900
H2467       H  0.39617233  0.02454265  0.57878256     0.14900
H2468       H  0.32155690  0.07677782  0.55262261     0.14900
C2469       C  0.28645880  0.04204220  0.57585089     0.36500
C2470       C  0.43316888  0.06233389  0.55637626     0.36400
N2471       N  0.25744526  0.03963080  0.57989843    -0.43800
N2472       N  0.46362384  0.06656611  0.55318035    -0.43800
C2473       C  0.61109295  0.98472179  0.64726006    -0.00200
C2474       C  0.58950942  0.99901120  0.65445855    -0.12100
C2475       C  0.59054552  0.00068334  0.66885985     0.02000
C2476       C  0.61397992  0.98846144  0.67632643    -0.00300
C2477       C  0.63954204  0.97929283  0.66913581    -0.12000
C2478       C  0.63824224  0.97721146  0.65468526     0.01900
H2479       H  0.56939288  0.00608190  0.64892963     0.14900
H2480       H  0.65818592  0.97054498  0.67481531     0.14900
C2481       C  0.66332878  0.96500233  0.64789234     0.36500
C2482       C  0.56591800  0.01336089  0.67574404     0.36400
N2483       N  0.68344423  0.95521881  0.64244854    -0.43800
N2484       N  0.54621355  0.02353697  0.68125802    -0.43800
C2485       C  0.37696294  0.90620705  0.60977136    -0.00200
C2486       C  0.39466872  0.90583280  0.62242243    -0.12100
C2487       C  0.42965907  0.90404978  0.62292421     0.02000
C2488       C  0.44748654  0.90225423  0.61049986    -0.00300
C2489       C  0.42743999  0.89829399  0.59796095    -0.12000
C2490       C  0.39261229  0.90046794  0.59746183     0.01900
H2491       H  0.38241339  0.90928395  0.63197891     0.14900
H2492       H  0.44035930  0.89613515  0.58836750     0.14900
C2493       C  0.37574604  0.89996394  0.58407378     0.36500
C2494       C  0.44768674  0.90704729  0.63629584     0.36400
N2495       N  0.36247295  0.89971739  0.57331158    -0.43800
N2496       N  0.46201554  0.90966538  0.64704213    -0.43800
C2497       C  0.60387290  0.01018260  0.57489284    -0.00200
C2498       C  0.59258213  0.03943896  0.57430146    -0.12100
C2499       C  0.60000697  0.06331208  0.56260079     0.02000
C2500       C  0.61987017  0.05875693  0.55132854    -0.00300
C2501       C  0.63153813  0.02987767  0.55184682    -0.12000
C2502       C  0.62336282  0.00528612  0.56345587     0.01900
H2503       H  0.57705286  0.04312290  0.58289623     0.14900
H2504       H  0.64672837  0.02634294  0.54311094     0.14900
C2505       C  0.63565233  0.97571634  0.56337824     0.36500
C2506       C  0.58684067  0.09218524  0.56241654     0.36400
N2507       N  0.64538502  0.95192297  0.56330320    -0.43800
N2508       N  0.57600992  0.11511381  0.56241395    -0.43800
C2509       C  0.00027934  0.38136806  0.65021584    -0.00200
C2510       C  0.99086523  0.34697640  0.65792170    -0.12100
C2511       C  0.99190303  0.34806255  0.67242057     0.02000
C2512       C  0.00245136  0.38400883  0.67929497    -0.00300
C2513       C  0.00882511  0.41733754  0.67159112    -0.12000
C2514       C  0.00734803  0.41623838  0.65721537     0.01900
H2515       H  0.98506204  0.31999774  0.65265287     0.14900
H2516       H  0.01623880  0.44483983  0.67684510     0.14900
C2517       C  0.01366770  0.45161363  0.64993663     0.36500
C2518       C  0.98545460  0.31309189  0.67994681     0.36400
N2519       N  0.01864340  0.47989181  0.64410688    -0.43800
N2520       N  0.98038526  0.28515707  0.68603036    -0.43800
C2521       C  0.01747441  0.49427567  0.60436537    -0.00200
C2522       C  0.05340538  0.53042725  0.60421277    -0.12100
C2523       C  0.05408513  0.56679829  0.60513906     0.02000
C2524       C  0.01815299  0.56738641  0.60618454    -0.00300
C2525       C  0.98221535  0.53134728  0.60575191    -0.12000
C2526       C  0.98146791  0.49504166  0.60481285     0.01900
H2527       H  0.08122388  0.53032950  0.60384024     0.14900
H2528       H  0.95439469  0.53143952  0.60622939     0.14900
C2529       C  0.94316850  0.45930152  0.60445036     0.36500
C2530       C  0.09214146  0.60272888  0.60562805     0.36400
N2531       N  0.91242781  0.43076510  0.60418942    -0.43800
N2532       N  0.12265026  0.63151565  0.60605872    -0.43800
C2533       C  0.94566994  0.34523624  0.57459360    -0.00200
C2534       C  0.91164290  0.34913383  0.57539935    -0.12100
C2535       C  0.88868143  0.34487037  0.56361906     0.02000
C2536       C  0.89912393  0.33548774  0.55091035    -0.00300
C2537       C  0.93221842  0.33031796  0.55016553    -0.12000
C2538       C  0.95607193  0.33606083  0.56177867     0.01900
H2539       H  0.90396184  0.35722382  0.58511008     0.14900
H2540       H  0.93934854  0.32156886  0.54049426     0.14900
C2541       C  0.99090984  0.33221705  0.56025513     0.36500
C2542       C  0.85516376  0.35115783  0.56466319     0.36400
N2543       N  0.01896823  0.32938621  0.55899097    -0.43800
N2544       N  0.82838545  0.35635730  0.56538113    -0.43800
C2545       C  0.31441040  0.35511300  0.65458305    -0.00200
C2546       C  0.35107643  0.38114469  0.66083292    -0.12100
C2547       C  0.35499620  0.38498100  0.67520505     0.02000
C2548       C  0.32190662  0.36219479  0.68366152    -0.00300
C2549       C  0.28644869  0.33323471  0.67753341    -0.12000
C2550       C  0.28237951  0.32956213  0.66313343     0.01900
H2551       H  0.37629657  0.40041339  0.65448671     0.14900
H2552       H  0.26098210  0.31515602  0.68396029     0.14900
C2553       C  0.24459349  0.30028642  0.65749493     0.36500
C2554       C  0.39310576  0.41305988  0.68100261     0.36400
N2555       N  0.21426952  0.27666598  0.65303644    -0.43800
N2556       N  0.42367805  0.43541265  0.68565420    -0.43800
C2557       C  0.19099938  0.37407844  0.60953690    -0.00200
C2558       C  0.18982431  0.40437711  0.60190123    -0.12100
C2559       C  0.15457571  0.40540139  0.60015267     0.02000
C2560       C  0.11932123  0.37622283  0.60648977    -0.00300
C2561       C  0.12006906  0.34491129  0.61369525    -0.12000
C2562       C  0.15538982  0.34348584  0.61519445     0.01900
H2563       H  0.21669806  0.42744515  0.59717594     0.14900
H2564       H  0.09330161  0.32212796  0.61855079     0.14900
C2565       C  0.15457856  0.31144361  0.62314711     0.36500
C2566       C  0.15556844  0.43648200  0.59155472     0.36400
N2567       N  0.15389768  0.28574053  0.62952216    -0.43800
N2568       N  0.15628927  0.46121741  0.58458952    -0.43800
C2569       C  0.36595371  0.33412032  0.55474093    -0.00200
C2570       C  0.37258039  0.31939576  0.56724590    -0.12100
C2571       C  0.35648753  0.32291994  0.57975819     0.02000
C2572       C  0.33249521  0.34087309  0.57989833    -0.00300
C2573       C  0.32537685  0.35476071  0.56737969    -0.12000
C2574       C  0.34194176  0.35204835  0.55500406     0.01900
H2575       H  0.39100165  0.30564474  0.56730215     0.14900
H2576       H  0.30740411  0.36902679  0.56724348     0.14900
C2577       C  0.33286445  0.36792841  0.54289770     0.36500
C2578       C  0.36536611  0.30811177  0.59220741     0.36400
N2579       N  0.32503087  0.38175236  0.53362067    -0.43800
N2580       N  0.37264763  0.29623635  0.60215750    -0.43800
C2581       C  0.61688073  0.65339674  0.65364324    -0.00200
C2582       C  0.58971818  0.61922059  0.66089904    -0.12100
C2583       C  0.58784349  0.61913350  0.67527545     0.02000
C2584       C  0.61458730  0.65326242  0.68275974    -0.00300
C2585       C  0.64495133  0.68558676  0.67567919    -0.12000
C2586       C  0.64599059  0.68621768  0.66120126     0.01900
H2587       H  0.56754598  0.59345049  0.65532291     0.14900
H2588       H  0.66579748  0.71182362  0.68137665     0.14900
C2589       C  0.67567357  0.72183002  0.65447586     0.36500
C2590       C  0.55646459  0.58451155  0.68198241     0.36400
N2591       N  0.69947829  0.75057317  0.64917201    -0.43800
N2592       N  0.53099639  0.55688753  0.68727276    -0.43800
C2593       C  0.46470687  0.57147788  0.61133583    -0.00200
C2594       C  0.44354013  0.55859514  0.62372792    -0.12100
C2595       C  0.40696550  0.52346295  0.62432513     0.02000
C2596       C  0.39116636  0.49998462  0.61235105    -0.00300
C2597       C  0.41086419  0.51451058  0.59975245    -0.12000
C2598       C  0.44699597  0.55010763  0.59909803     0.01900
H2599       H  0.45626015  0.57518772  0.63315146     0.14900
H2600       H  0.39854127  0.49745676  0.59038541     0.14900
C2601       C  0.46517246  0.56351559  0.58574714     0.36500
C2602       C  0.38737935  0.51174965  0.63749816     0.36400
N2603       N  0.47956726  0.57442101  0.57503867    -0.43800
N2604       N  0.37167872  0.50261080  0.64806148    -0.43800
C2605       C  0.58211760  0.76508539  0.60947922    -0.00200
C2606       C  0.54580783  0.76253947  0.60591317    -0.12100
C2607       C  0.54196096  0.79647040  0.60503963     0.02000
C2608       C  0.57501278  0.83421737  0.60780659    -0.00300
C2609       C  0.61163977  0.83701017  0.61095971    -0.12000
C2610       C  0.61545112  0.80295527  0.61188792     0.01900
H2611       H  0.52005888  0.73378267  0.60382647     0.14900
H2612       H  0.63720537  0.86583138  0.61312538     0.14900
C2613       C  0.65348841  0.80789108  0.61588813     0.36500
C2614       C  0.50383712  0.79147773  0.60105812     0.36400
N2615       N  0.68402558  0.81204888  0.61915078    -0.43800
N2616       N  0.47329755  0.78741987  0.59784735    -0.43800
C2617       C  0.62305007  0.62206051  0.58068921    -0.00200
C2618       C  0.64120374  0.64693353  0.56927633    -0.12100
C2619       C  0.64516965  0.63130301  0.55678332     0.02000
C2620       C  0.63006601  0.59006238  0.55549789    -0.00300
C2621       C  0.61414992  0.56554416  0.56704045    -0.12000
C2622       C  0.60976498  0.58089045  0.57950990     0.01900
H2623       H  0.65162909  0.67852663  0.57002877     0.14900
H2624       H  0.60411151  0.53404654  0.56618149     0.14900
C2625       C  0.58875577  0.55311020  0.59048982     0.36500
C2626       C  0.66425508  0.65792676  0.54534094     0.36400
N2627       N  0.57154896  0.53077668  0.59922589    -0.43800
N2628       N  0.67950545  0.67911295  0.53613200    -0.43800
loop_ 
_geom_bond_atom_site_label_1 
_geom_bond_atom_site_label_2 
_geom_bond_distance 
_geom_bond_site_symmetry_2 
_ccdc_geom_bond_type 
In1           O3   2.244       .  S
In1           O4   2.253       .  S
In1          O12   2.254       .  S
In1           O6   2.225       .  S
In1           O8   2.235       .  S
In1           O9   2.232       .  S
In1          O10   2.241       .  S
In1          O13   2.268       .  S
C2            O8   1.260       .  A
C2           O10   1.262       .  A
C2         C2593   1.482       .  S
O3           C11   1.258       .  A
O4           C11   1.259       .  A
C5           O12   1.263       .  A
C5            O6   1.259       .  A
C5         C2605   1.483       .  S
C7            O9   1.258       .  A
C7           O13   1.261       .  A
C7         C2581   1.486       .  S
C11        C2617   1.482       .  S
In14         O16   2.260       .  S
In14         O17   2.246       .  S
In14         O25   2.266       .  S
In14         O19   2.239       .  S
In14         O21   2.240       .  S
In14         O22   2.223       .  S
In14         O23   2.251       .  S
In14         O26   2.285       .  S
C15          O21   1.258       .  A
C15          O23   1.260       .  A
C15        C2596   1.483       .  S
O16          C24   1.261       .  A
O17          C24   1.259       .  A
C18          O25   1.263       .  A
C18          O19   1.261       .  A
C18        C2557   1.487       .  S
C20          O22   1.257       .  A
C20          O26   1.262       .  A
C20        C2572   1.491       .  S
C24        C2545   1.490       .  S
In27         O29   2.231       .  S
In27         O30   2.249   1_455  S
In27         O38   2.267       .  S
In27         O32   2.224       .  S
In27         O34   2.250       .  S
In27         O35   2.275   1_455  S
In27         O36   2.214   1_455  S
In27         O39   2.200       .  S
C28          O34   1.265       .  A
C28          O36   1.258   1_455  A
C28        C2521   1.481       .  S
O29          C37   1.259   1_455  A
O30          C37   1.263       .  A
C31          O38   1.266       .  A
C31          O32   1.262       .  A
C31        C2560   1.491       .  S
C33          O35   1.267   1_455  A
C33          O39   1.257       .  A
C33        C2509   1.480       .  S
C37        C2533   1.477       .  S
In40         O42   2.253       .  S
In40         O43   2.238       .  S
In40         O51   2.243       .  S
In40         O45   2.227       .  S
In40         O47   2.238       .  S
In40         O48   2.244       .  S
In40         O49   2.231       .  S
In40         O52   2.251       .  S
C41          O47   1.262       .  A
C41          O49   1.259       .  A
C41        C2488   1.480       .  S
O42          C50   1.260       .  A
O43          C50   1.258       .  A
C44          O51   1.263       .  A
C44          O45   1.260       .  A
C44        C2608   1.479       .  S
C46          O48   1.258       .  A
C46          O52   1.257       .  A
C46        C2497   1.480   1_565  S
C50        C2473   1.485       .  S
In53         O55   2.270       .  S
In53         O56   2.243       .  S
In53         O64   2.262       .  S
In53         O58   2.232       .  S
In53         O60   2.245       .  S
In53         O61   2.283       .  S
In53         O62   2.227       .  S
In53         O65   2.216       .  S
C54          O60   1.261       .  A
C54          O62   1.259       .  A
C54        C2485   1.478       .  S
O55          C63   1.262   1_565  A
O56          C63   1.257   1_565  A
C57          O64   1.264       .  A
C57          O58   1.260       .  A
C57        C2452   1.488       .  S
C59          O61   1.265       .  A
C59          O65   1.258       .  A
C59        C2437   1.484       .  S
C63        C2461   1.488       .  S
In66         O68   2.222       .  S
In66         O69   2.279   1_455  S
In66         O77   2.263       .  S
In66         O71   2.218       .  S
In66         O73   2.239       .  S
In66         O74   2.231       .  S
In66         O75   2.234   1_455  S
In66         O78   2.265   1_455  S
C67          O73   1.259       .  A
C67          O75   1.259   1_455  A
C67        C2524   1.478       .  S
O68          C76   1.258       .  A
O69          C76   1.264   1_655  A
C70          O77   1.267       .  A
C70          O71   1.261       .  A
C70        C2449   1.485       .  S
C72          O74   1.258   1_655  A
C72          O78   1.263       .  A
C72        C2425   1.486       .  S
C76        C2413   1.479       .  S
C79          C80   1.538       .  S
C79          C85   1.532       .  S
C79          C83   1.555       .  S
C79        C2377   1.549       .  S
C80          H87   1.086       .  S
C80          C81   1.367       .  D
C81          C82   1.541       .  S
C81        C2389   1.502       .  S
C82          C86   1.541       .  S
C82          C84   1.548       .  S
C82          H88   1.102       .  S
C83          H89   1.081       .  S
C83          C84   1.384       .  D
C84        C2401   1.516       .  S
C85          H90   1.087       .  S
C85          C86   1.355       .  D
C86        C2620   1.477       .  S
C91          C92   1.540       .  S
C91          C97   1.533       .  S
C91          C95   1.557       .  S
C91        C2365   1.554       .  S
C92          H99   1.085       .  S
C92          C93   1.365       .  D
C93          C94   1.547       .  S
C93        C2353   1.503       .  S
C94          C98   1.545       .  S
C94          C96   1.539       .  S
C94         H100   1.109       .  S
C95         H101   1.079       .  S
C95          C96   1.379       .  D
C96        C2404   1.504       .  S
C97         H102   1.085       .  S
C97          C98   1.362       .  D
C98        C2344   1.495       .  S
C103        C104   1.556       .  S
C103        C109   1.540       .  S
C103        C107   1.545       .  S
C103       C2305   1.550       .  S
C104        H111   1.082       .  S
C104        C105   1.373       .  D
C105        C106   1.536       .  S
C105       C2329   1.489       .  S
C106        C110   1.529       .  S
C106        C108   1.542       .  S
C106        H112   1.110       .  S
C107        H113   1.085       .  S
C107        C108   1.370       .  D
C108       C2317   1.504       .  S
C109        H114   1.086       .  S
C109        C110   1.359       .  D
C110       C2500   1.474       .  S
C115        C116   1.555       .  S
C115        C121   1.538       .  S
C115        C119   1.537       .  S
C115       C2368   1.549       .  S
C116        H123   1.080       .  S
C116        C117   1.383       .  D
C117        C118   1.550       .  S
C117       C2332   1.516       .  S
C118        C122   1.538       .  S
C118        C120   1.543       .  S
C118        H124   1.107       .  S
C119        H125   1.086       .  S
C119        C120   1.362       .  D
C120       C2293   1.492       .  S
C121        H126   1.087       .  S
C121        C122   1.360       .  D
C122       C2281   1.495       .  S
C127        C128   1.558       .  S
C127        C133   1.537       .  S
C127        C131   1.540       .  S
C127       C2380   1.554       .  S
C128        H135   1.076       .  S
C128        C129   1.380       .  D
C129        C130   1.542       .  S
C129       C2272   1.509       .  S
C130        C134   1.541       .  S
C130        C132   1.543       .  S
C130        H136   1.108       .  S
C131        H137   1.086       .  S
C131        C132   1.367       .  D
C132       C2257   1.500       .  S
C133        H138   1.087       .  S
C133        C134   1.356       .  D
C134       C2428   1.483       .  S
C139        C140   1.557       .  S
C139        C145   1.539       .  S
C139        C143   1.542       .  S
C139       C2245   1.554       .  S
C140        H147   1.074       .  S
C140        C141   1.379       .  D
C141        C142   1.539       .  S
C141       C2269   1.502   1_455  S
C142        C146   1.537       .  S
C142        C144   1.537       .  S
C142        H148   1.110       .  S
C143        H149   1.086       .  S
C143        C144   1.365       .  D
C144       C2236   1.495       .  S
C145        H150   1.087       .  S
C145        C146   1.359       .  D
C146       C2224   1.485       .  S
C151        C152   1.548       .  S
C151        C157   1.541       .  S
C151        C155   1.540       .  S
C151       C2197   1.546       .  S
C152        H159   1.081       .  S
C152        C153   1.368       .  D
C153        C154   1.541       .  S
C153       C2320   1.497       .  S
C154        C158   1.542       .  S
C154        C156   1.543       .  S
C154        H160   1.108       .  S
C155        H161   1.085       .  S
C155        C156   1.371       .  D
C156       C2209   1.499       .  S
C157        H162   1.086       .  S
C157        C158   1.364       .  D
C158       C2464   1.494       .  S
C163        C164   1.540       .  S
C163        C169   1.553       .  S
C163        C167   1.540       .  S
C163       C2248   1.550       .  S
C164        H171   1.084       .  S
C164        C165   1.367       .  D
C165        C166   1.543       .  S
C165       C2185   1.500       .  S
C166        C170   1.538       .  S
C166        C168   1.540       .  S
C166        H172   1.109       .  S
C167        H173   1.086       .  S
C167        C168   1.365       .  D
C168       C2296   1.495       .  S
C169        H174   1.080       .  S
C169        C170   1.372       .  D
C170       C2212   1.498       .  S
C175        C176   1.544       .  S
C175        C181   1.543       .  S
C175        C179   1.545       .  S
C175       C2200   1.546       .  S
C176        H183   1.086       .  S
C176        C177   1.372       .  D
C177        C178   1.539       .  S
C177       C2176   1.494       .  S
C178        C182   1.544       .  S
C178        C180   1.538       .  S
C178        H184   1.109       .  S
C179        H185   1.083       .  S
C179        C180   1.363       .  D
C180       C2392   1.493       .  S
C181        H186   1.085       .  S
C181        C182   1.367       .  D
C182       C2569   1.499       .  S
C187        C188   1.544       .  S
C187        C193   1.545       .  S
C187        C191   1.545       .  S
C187       C2161   1.553       .  S
C188        H195   1.086       .  S
C188        C189   1.372       .  D
C189        C190   1.540       .  S
C189       C2173   1.497       .  S
C190        C194   1.545       .  S
C190        C192   1.539       .  S
C190        H196   1.108       .  S
C191        H197   1.083       .  S
C191        C192   1.364       .  D
C192       C2356   1.493       .  S
C193        H198   1.085       .  S
C193        C194   1.369       .  D
C194       C2149   1.499       .  S
C199        C200   1.540       .  S
C199        C205   1.546       .  S
C199        C203   1.549       .  S
C199       C2164   1.552       .  S
C200        H207   1.086       .  S
C200        C201   1.364       .  D
C201        C202   1.538       .  S
C201       C2125   1.493       .  S
C202        C206   1.536       .  S
C202        C204   1.541       .  S
C202        H208   1.106       .  S
C203        H209   1.082       .  S
C203        C204   1.370       .  D
C204       C2233   1.501       .  S
C205        H210   1.085       .  S
C205        C206   1.373       .  D
C206       C2137   1.495       .  S
C211        C212   1.541       .  S
C211        C217   1.541       .  S
C211        C215   1.557       .  S
C211       C2308   1.554       .  S
C212        H219   1.086       .  S
C212        C213   1.367       .  D
C213        C214   1.538       .  S
C213       C2260   1.497       .  S
C214        C218   1.532       .  S
C214        C216   1.539       .  S
C214        H220   1.110       .  S
C215        H221   1.077       .  S
C215        C216   1.378       .  D
C216       C2140   1.502       .  S
C217        H222   1.087       .  S
C217        C218   1.357       .  D
C218       C2536   1.473       .  S
In223       O225   2.223       .  S
In223       O226   2.223       .  S
In223       O234   2.218       .  S
In223       O228   2.277       .  S
In223       O230   2.275       .  S
In223       O231   2.224       .  S
In223       O232   2.209       .  S
In223       O235   2.253       .  S
C224        O230   1.266       .  A
C224        O232   1.258       .  A
C224       C2092   1.477       .  S
O225        C233   1.264       .  A
O226        C233   1.264       .  A
C227        O234   1.255       .  A
C227        O228   1.265       .  A
C227       C2221   1.475       .  S
C229        O231   1.258       .  A
C229        O235   1.262       .  A
C229       C2113   1.483       .  S
C233       C2104   1.476       .  S
In236       O238   2.258       .  S
In236       O239   2.226       .  S
In236       O247   2.219       .  S
In236       O241   2.268       .  S
In236       O243   2.280       .  S
In236       O244   2.229       .  S
In236       O245   2.209       .  S
In236       O248   2.224       .  S
C237        O243   1.265       .  A
C237        O245   1.259       .  A
C237       C2065   1.486       .  S
O238        C246   1.264       .  A
O239        C246   1.260       .  A
C240        O247   1.256       .  A
C240        O241   1.266       .  A
C240       C2128   1.480       .  S
C242        O244   1.263       .  A
C242        O248   1.261       .  A
C242       C2101   1.475       .  S
C246       C2077   1.484       .  S
In249       O251   2.222       .  S
In249       O252   2.252       .  S
In249       O260   2.227       .  S
In249       O254   2.274   1_545  S
In249       O256   2.266       .  S
In249       O257   2.214       .  S
In249       O258   2.217       .  S
In249       O261   2.251       .  S
C250        O256   1.264       .  A
C250        O258   1.258       .  A
C250       C2044   1.475       .  S
O251        C259   1.258       .  A
O252        C259   1.260       .  A
C253        O260   1.259       .  A
C253        O254   1.263   1_545  A
C253       C2284   1.490   1_545  S
C255        O257   1.262       .  A
C255        O261   1.266       .  A
C255       C2080   1.483       .  S
C259       C2053   1.473       .  S
In262       O264   2.205       .  S
In262       O265   2.269       .  S
In262       O273   2.249       .  S
In262       O267   2.217       .  S
In262       O269   2.236       .  S
In262       O270   2.272       .  S
In262       O271   2.217       .  S
In262       O274   2.200       .  S
C263        O269   1.264       .  A
C263        O271   1.262       .  A
C263       C2032   1.480       .  S
O264        C272   1.257       .  A
O265        C272   1.266       .  A
C266        O273   1.262       .  A
C266        O267   1.260       .  A
C266       C2116   1.482       .  S
C268        O270   1.267       .  A
C268        O274   1.259       .  A
C268       C2020   1.482       .  S
C272       C2341   1.473       .  S
In275       O277   2.204       .  S
In275       O278   2.273       .  S
In275       O286   2.251       .  S
In275       O280   2.218       .  S
In275       O282   2.238       .  S
In275       O283   2.269       .  S
In275       O284   2.220       .  S
In275       O287   2.219       .  S
C276        O282   1.262       .  A
C276        O284   1.261       .  A
C276       C2029   1.480       .  S
O277        C285   1.260       .  A
O278        C285   1.268       .  A
C279        O286   1.265       .  A
C279        O280   1.261       .  A
C279       C2005   1.480       .  S
C281        O283   1.267       .  A
C281        O287   1.259       .  A
C281       C2152   1.488       .  S
C285       C1993   1.488       .  S
In288       O290   2.213       .  S
In288       O291   2.268   1_545  S
In288       O299   2.247       .  S
In288       O293   2.225       .  S
In288       O295   2.237       .  S
In288       O296   2.277       .  S
In288       O297   2.219       .  S
In288       O300   2.207       .  S
C289        O295   1.263       .  A
C289        O297   1.262       .  A
C289       C2056   1.476       .  S
O290        C298   1.257       .  A
O291        C298   1.266   1_565  A
C292        O299   1.263       .  A
C292        O293   1.261       .  A
C292       C2008   1.477       .  S
C294        O296   1.266       .  A
C294        O300   1.259       .  A
C294       C1981   1.480       .  S
C298       C2188   1.478   1_545  S
In301       O303   2.203       .  S
In301       O304   2.282       .  S
In301       O312   2.260       .  S
In301       O306   2.224       .  S
In301       O308   2.231   1_655  S
In301       O309   2.271       .  S
In301       O310   2.228   1_655  S
In301       O313   2.214       .  S
C302        O308   1.262       .  A
C302        O310   1.261       .  A
C302       C1945   1.479       .  S
O303        C311   1.259       .  A
O304        C311   1.268       .  A
C305        O312   1.265       .  A
C305        O306   1.261       .  A
C305       C1957   1.486       .  S
C307        O309   1.267       .  A
C307        O313   1.257       .  A
C307       C1969   1.487   1_655  S
C311       C1933   1.483       .  S
In314       O316   2.226       .  S
In314       O317   2.271       .  S
In314       O325   2.252       .  S
In314       O319   2.222       .  S
In314       O321   2.229       .  S
In314       O322   2.275       .  S
In314       O323   2.227   1_655  S
In314       O326   2.224       .  S
C315        O321   1.262   1_455  A
C315        O323   1.262       .  A
C315       C1897   1.480       .  S
O316        C324   1.256       .  A
O317        C324   1.265       .  A
C318        O325   1.264       .  A
C318        O319   1.261       .  A
C318       C1909   1.481       .  S
C320        O322   1.264       .  A
C320        O326   1.257       .  A
C320       C1885   1.481       .  S
C324       C1924   1.481   1_655  S
In327       O329   2.213       .  S
In327       O330   2.264       .  S
In327       O338   2.254       .  S
In327       O332   2.222       .  S
In327       O334   2.234       .  S
In327       O335   2.270       .  S
In327       O336   2.217       .  S
In327       O339   2.220       .  S
C328        O334   1.264       .  A
C328        O336   1.261       .  A
C328       C1900   1.479       .  S
O329        C337   1.257       .  A
O330        C337   1.264       .  A
C331        O338   1.262       .  A
C331        O332   1.260       .  A
C331       C1861   1.485       .  S
C333        O335   1.264       .  A
C333        O339   1.256       .  A
C333       C1873   1.476       .  S
C337       C1849   1.466       .  S
In340       O342   2.236       .  S
In340       O343   2.260   1_545  S
In340       O351   2.257       .  S
In340       O345   2.225       .  S
In340       O347   2.233   1_545  S
In340       O348   2.286       .  S
In340       O349   2.226   1_545  S
In340       O352   2.207   1_545  S
C341        O347   1.263       .  A
C341        O349   1.263       .  A
C341       C1948   1.479       .  S
O342        C350   1.258   1_545  A
O343        C350   1.263       .  A
C344        O351   1.263       .  A
C344        O345   1.258       .  A
C344       C1864   1.485       .  S
C346        O348   1.265       .  A
C346        O352   1.256   1_545  A
C346       C1828   1.479       .  S
C350       C1840   1.487       .  S
In353       O355   2.261       .  S
In353       O356   2.211       .  S
In353       O364   2.251       .  S
In353       O358   2.217       .  S
In353       O360   2.251   1_545  S
In353       O361   2.255   1_545  S
In353       O362   2.229   1_545  S
In353       O365   2.216   1_545  S
C354        O360   1.260       .  A
C354        O362   1.258       .  A
C354       C1804   1.484       .  S
O355        C363   1.263       .  A
O356        C363   1.259       .  A
C357        O364   1.264       .  A
C357        O358   1.261       .  A
C357       C1912   1.481       .  S
C359        O361   1.263       .  A
C359        O365   1.258       .  A
C359       C1816   1.479       .  S
C363       C1792   1.473       .  S
In366       O368   2.215       .  S
In366       O369   2.282       .  S
In366       O377   2.266       .  S
In366       O371   2.225       .  S
In366       O373   2.248       .  S
In366       O374   2.276       .  S
In366       O375   2.227       .  S
In366       O378   2.210       .  S
C367        O373   1.262       .  A
C367        O375   1.261       .  A
C367       C1801   1.483       .  S
O368        C376   1.256       .  A
O369        C376   1.266       .  A
C370        O377   1.265       .  A
C370        O371   1.260       .  A
C370       C1960   1.487       .  S
C372        O374   1.265       .  A
C372        O378   1.259       .  A
C372       C1765   1.483       .  S
C376       C1780   1.482       .  S
C379        C380   1.544       .  S
C379        C385   1.541       .  S
C379        C383   1.551       .  S
C379       C1729   1.552       .  S
C380        H387   1.086       .  S
C380        C381   1.363       .  D
C381        C382   1.532       .  S
C381       C1741   1.483       .  S
C382        C386   1.536       .  S
C382        C384   1.538       .  S
C382        H388   1.110       .  S
C383        H389   1.071       .  S
C383        C384   1.374       .  D
C384       C1753   1.496       .  S
C385        H390   1.087       .  S
C385        C386   1.363       .  D
C386       C1717   1.486       .  S
C391        C392   1.546       .  S
C391        C397   1.536       .  S
C391        C395   1.550       .  S
C391       C1693   1.546       .  S
C392        H399   1.086       .  S
C392        C393   1.363       .  D
C393        C394   1.537       .  S
C393       C1708   1.488       .  S
C394        C398   1.541       .  S
C394        C396   1.537       .  S
C394        H400   1.109       .  S
C395        H401   1.081       .  S
C395        C396   1.374       .  D
C396       C1756   1.495       .  S
C397        H402   1.085       .  S
C397        C398   1.365       .  D
C398       C1777   1.498       .  S
C403        C404   1.559       .  S
C403        C409   1.539       .  S
C403        C407   1.542       .  S
C403       C1669   1.547       .  S
C404        H411   1.081       .  S
C404        C405   1.373       .  D
C405        C406   1.533   1_545  S
C405       C1684   1.490   1_545  S
C406        C410   1.537   1_565  S
C406        C408   1.533       .  S
C406        H412   1.111       .  S
C407        H413   1.086       .  S
C407        C408   1.362   1_545  D
C408       C1744   1.482       .  S
C409        H414   1.086       .  S
C409        C410   1.364       .  D
C410       C1657   1.489       .  S
C415        C416   1.555       .  S
C415        C421   1.539       .  S
C415        C419   1.542       .  S
C415       C1645   1.555       .  S
C416        H423   1.075       .  S
C416        C417   1.378       .  D
C417        C418   1.542       .  S
C417       C1681   1.501       .  S
C418        C422   1.536       .  S
C418        C420   1.537       .  S
C418        H424   1.108       .  S
C419        H425   1.087       .  S
C419        C420   1.361       .  D
C420       C1705   1.486       .  S
C421        H426   1.087       .  S
C421        C422   1.363       .  D
C422       C1813   1.490       .  S
C427        C428   1.556       .  S
C427        C433   1.539       .  S
C427        C431   1.540       .  S
C427       C1732   1.545       .  S
C428        H435   1.082       .  S
C428        C429   1.374       .  D
C429        C430   1.539   1_655  S
C429       C1633   1.491   1_655  S
C430        C434   1.536   1_455  S
C430        C432   1.534       .  S
C430        H436   1.110       .  S
C431        H437   1.086       .  S
C431        C432   1.364   1_655  D
C432       C1621   1.487       .  S
C433        H438   1.087       .  S
C433        C434   1.362       .  D
C434       C1609   1.491       .  S
C439        C440   1.555       .  S
C439        C445   1.539       .  S
C439        C443   1.541       .  S
C439       C1588   1.548       .  S
C440        H447   1.078       .  S
C440        C441   1.376       .  D
C441        C442   1.537       .  S
C441       C1636   1.496       .  S
C442        C446   1.537       .  S
C442        C444   1.540       .  S
C442        H448   1.110       .  S
C443        H449   1.086       .  S
C443        C444   1.367       .  D
C444       C1600   1.498       .  S
C445        H450   1.087       .  S
C445        C446   1.357       .  D
C446       C1972   1.483       .  S
C451        C452   1.541       .  S
C451        C457   1.540       .  S
C451        C455   1.553       .  S
C451       C1672   1.552       .  S
C452        H459   1.086       .  S
C452        C453   1.367   1_655  D
C453        C454   1.540       .  S
C453       C1561   1.496       .  S
C454        C458   1.535   1_455  S
C454        C456   1.537   1_455  S
C454        H460   1.110       .  S
C455        H461   1.074       .  S
C455        C456   1.373       .  D
C456       C1573   1.495       .  S
C457        H462   1.087       .  S
C457        C458   1.359       .  D
C458       C1549   1.477       .  S
C463        C464   1.536       .  S
C463        C469   1.540       .  S
C463        C467   1.551       .  S
C463       C1585   1.543       .  S
C464        H471   1.085       .  S
C464        C465   1.364       .  D
C465        C466   1.541       .  S
C465       C1537   1.499       .  S
C466        C470   1.537       .  S
C466        C468   1.542       .  S
C466        H472   1.109       .  S
C467        H473   1.082       .  S
C467        C468   1.377       .  D
C468       C1576   1.496       .  S
C469        H474   1.086       .  S
C469        C470   1.362       .  D
C470       C1921   1.491       .  S
C475        C476   1.543       .  S
C475        C481   1.547       .  S
C475        C479   1.543       .  S
C475       C1516   1.549       .  S
C476        H483   1.086       .  S
C476        C477   1.362       .  D
C477        C478   1.535       .  S
C477       C1504   1.483       .  S
C478        C482   1.538       .  S
C478        C480   1.539       .  S
C478        H484   1.110       .  S
C479        H485   1.085       .  S
C479        C480   1.374       .  D
C480       C1525   1.499       .  S
C481        H486   1.079       .  S
C481        C482   1.367       .  D
C482       C1564   1.496       .  S
C487        C488   1.555       .  S
C487        C493   1.532       .  S
C487        C491   1.538       .  S
C487       C1696   1.544       .  S
C488        H495   1.082       .  S
C488        C489   1.380       .  D
C489        C490   1.542       .  S
C489       C1528   1.500       .  S
C490        C494   1.535       .  S
C490        C492   1.539       .  S
C490        H496   1.109       .  S
C491        H497   1.086       .  S
C491        C492   1.365       .  D
C492       C1540   1.495       .  S
C493        H498   1.087       .  S
C493        C494   1.358       .  D
C494       C1876   1.482       .  S
C499        C500   1.544       .  S
C499        C505   1.542       .  S
C499        C503   1.545       .  S
C499       C1513   1.548       .  S
C500        H507   1.084       .  S
C500        C501   1.364   1_545  D
C501        C502   1.539       .  S
C501       C1624   1.491       .  S
C502        C506   1.541   1_565  S
C502        C504   1.538       .  S
C502        H508   1.110       .  S
C503        H509   1.086       .  S
C503        C504   1.372   1_545  D
C504       C1492   1.498       .  S
C505        H510   1.085       .  S
C505        C506   1.366       .  D
C506       C1477   1.487       .  S
C511        C512   1.541       .  S
C511        C517   1.539       .  S
C511        C515   1.557       .  S
C511       C1648   1.550       .  S
C512        H519   1.086       .  S
C512        C513   1.365       .  D
C513        C514   1.540       .  S
C513       C1597   1.496       .  S
C514        C518   1.538       .  S
C514        C516   1.541       .  S
C514        H520   1.110       .  S
C515        H521   1.082       .  S
C515        C516   1.377       .  D
C516       C1489   1.500       .  S
C517        H522   1.086       .  S
C517        C518   1.362       .  D
C518       C1837   1.491       .  S
In523       O525   2.240       .  S
In523       O526   2.264       .  S
In523       O534   2.257   1_455  S
In523       O528   2.215       .  S
In523       O530   2.254       .  S
In523       O531   2.265   1_455  S
In523       O532   2.221       .  S
In523       O535   2.213       .  S
C524        O530   1.260       .  A
C524        O532   1.257       .  A
C524       C1453   1.480       .  S
O525        C533   1.258       .  A
O526        C533   1.259       .  A
C527        O534   1.267   1_455  A
C527        O528   1.262       .  A
C527       C1465   1.488       .  S
C529        O531   1.265   1_455  A
C529        O535   1.259       .  A
C529       C2512   1.474       .  S
C533       C1552   1.483   1_455  S
In536       O538   2.240       .  S
In536       O539   2.262       .  S
In536       O547   2.255       .  S
In536       O541   2.218       .  S
In536       O543   2.237       .  S
In536       O544   2.276       .  S
In536       O545   2.226       .  S
In536       O548   2.218       .  S
C537        O543   1.261       .  A
C537        O545   1.260       .  A
C537       C1456   1.476       .  S
O538        C546   1.259       .  A
O539        C546   1.262       .  A
C540        O547   1.265       .  A
C540        O541   1.259       .  A
C540       C1441   1.479       .  S
C542        O544   1.263       .  A
C542        O548   1.254       .  A
C542       C1501   1.477       .  S
C546       C2548   1.481       .  S
In549       O551   2.229       .  S
In549       O552   2.273       .  S
In549       O560   2.241       .  S
In549       O554   2.236       .  S
In549       O556   2.238       .  S
In549       O557   2.265       .  S
In549       O558   2.230       .  S
In549       O561   2.215       .  S
C550        O556   1.263       .  A
C550        O558   1.261       .  A
C550       C1429   1.478       .  S
O551        C559   1.256       .  A
O552        C559   1.262       .  A
C553        O560   1.261       .  A
C553        O554   1.262       .  A
C553       C1444   1.483       .  S
C555        O557   1.264       .  A
C555        O561   1.258       .  A
C555       C2584   1.477       .  S
C559       C1720   1.480       .  S
In562       O564   2.221       .  S
In562       O565   2.262       .  S
In562       O573   2.243       .  S
In562       O567   2.222       .  S
In562       O569   2.239       .  S
In562       O570   2.271       .  S
In562       O571   2.227       .  S
In562       O574   2.221       .  S
C563        O569   1.261       .  A
C563        O571   1.261       .  A
C563       C1432   1.478       .  S
O564        C572   1.258       .  A
O565        C572   1.263       .  A
C566        O573   1.263       .  A
C566        O567   1.260       .  A
C566       C1420   1.472       .  S
C568        O570   1.262       .  A
C568        O574   1.254       .  A
C568       C1660   1.478       .  S
C572       C2476   1.476       .  S
In575       O577   2.229       .  S
In575       O578   2.260       .  S
In575       O586   2.239       .  S
In575       O580   2.228       .  S
In575       O582   2.236       .  S
In575       O583   2.274       .  S
In575       O584   2.204       .  S
In575       O587   2.209       .  S
C576        O582   1.264       .  A
C576        O584   1.261       .  A
C576       C1405   1.475       .  S
O577        C585   1.258       .  A
O578        C585   1.264       .  A
C579        O586   1.263       .  A
C579        O580   1.260       .  A
C579       C1417   1.476       .  S
C581        O583   1.266       .  A
C581        O587   1.258       .  A
C581       C2440   1.477       .  S
C585       C1480   1.487       .  S
In588       O590   2.210       .  S
In588       O591   2.294   1_455  S
In588       O599   2.260   1_455  S
In588       O593   2.213       .  S
In588       O595   2.232       .  S
In588       O596   2.272   1_455  S
In588       O597   2.211       .  S
In588       O600   2.232       .  S
C589        O595   1.263       .  A
C589        O597   1.262       .  A
C589       C1408   1.477       .  S
O590        C598   1.255       .  A
O591        C598   1.267   1_655  A
C592        O599   1.264   1_455  A
C592        O593   1.259       .  A
C592       C1468   1.486       .  S
C594        O596   1.263       .  A
C594        O600   1.258   1_655  A
C594       C1612   1.490       .  S
C598       C2416   1.488       .  S
In601       O603   2.277       .  S
In601       O604   2.208       .  S
In601       O612   2.262   1_545  S
In601       O606   2.224   1_545  S
In601       O608   2.239       .  S
In601       O609   2.271       .  S
In601       O610   2.216       .  S
In601       O613   2.223       .  S
C602        O608   1.264       .  A
C602        O610   1.261       .  A
C602       C1372   1.473       .  S
O603        C611   1.266       .  A
O604        C611   1.256       .  A
C605        O612   1.264       .  A
C605        O606   1.260       .  A
C605       C1381   1.487       .  S
C607        O609   1.264       .  A
C607        O613   1.259       .  A
C607       C1396   1.490       .  S
C611       C1789   1.478       .  S
In614       O616   2.221       .  S
In614       O617   2.256       .  S
In614       O625   2.257       .  S
In614       O619   2.226       .  S
In614       O621   2.230       .  S
In614       O622   2.283       .  S
In614       O623   2.231       .  S
In614       O626   2.205       .  S
C615        O621   1.262       .  A
C615        O623   1.261       .  A
C615       C1345   1.480       .  S
O616        C624   1.259       .  A
O617        C624   1.264       .  A
C618        O625   1.264       .  A
C618        O619   1.258       .  A
C618       C1384   1.486       .  S
C620        O622   1.265       .  A
C620        O626   1.257       .  A
C620       C1768   1.480       .  S
C624       C1357   1.486       .  S
In627       O629   2.220       .  S
In627       O630   2.232       .  S
In627       O638   2.222       .  S
In627       O632   2.270       .  S
In627       O634   2.280       .  S
In627       O635   2.227   1_655  S
In627       O636   2.209       .  S
In627       O639   2.266   1_655  S
C628        O634   1.268       .  A
C628        O636   1.259       .  A
C628       C1936   1.488       .  S
O629        C637   1.261       .  A
O630        C637   1.265       .  A
C631        O638   1.258       .  A
C631        O632   1.266       .  A
C631       C1333   1.491       .  S
C633        O635   1.261       .  A
C633        O639   1.265       .  A
C633       C1321   1.489       .  S
C637       C1348   1.478       .  S
In640       O642   2.235       .  S
In640       O643   2.269       .  S
In640       O651   2.277   1_545  S
In640       O645   2.228   1_545  S
In640       O647   2.253       .  S
In640       O648   2.278       .  S
In640       O649   2.226       .  S
In640       O652   2.215       .  S
C641        O647   1.261       .  A
C641        O649   1.258       .  A
C641       C1300   1.479       .  S
O642        C650   1.259       .  A
O643        C650   1.265       .  A
C644        O651   1.265       .  A
C644        O645   1.259       .  A
C644       C1324   1.491       .  S
C646        O648   1.264       .  A
C646        O652   1.259       .  A
C646       C1825   1.476       .  S
C650       C1309   1.490       .  S
In653       O655   2.221       .  S
In653       O656   2.261       .  S
In653       O664   2.260       .  S
In653       O658   2.230       .  S
In653       O660   2.255       .  S
In653       O661   2.259       .  S
In653       O662   2.228       .  S
In653       O665   2.224       .  S
C654        O660   1.262       .  A
C654        O662   1.259       .  A
C654       C1297   1.478       .  S
O655        C663   1.259       .  A
O656        C663   1.262       .  A
C657        O664   1.264       .  A
C657        O658   1.262       .  A
C657       C1276   1.484       .  S
C659        O661   1.264       .  A
C659        O665   1.259       .  A
C659       C1288   1.487       .  S
C663       C1852   1.472       .  S
In666       O668   2.230       .  S
In666       O669   2.272       .  S
In666       O677   2.265   1_655  S
In666       O671   2.225   1_655  S
In666       O673   2.238       .  S
In666       O674   2.285       .  S
In666       O675   2.221       .  S
In666       O678   2.222       .  S
C667        O673   1.263       .  A
C667        O675   1.262       .  A
C667       C1369   1.476       .  S
O668        C676   1.257       .  A
O669        C676   1.264       .  A
C670        O677   1.264       .  A
C670        O671   1.260       .  A
C670       C1273   1.487       .  S
C672        O674   1.265       .  A
C672        O678   1.256       .  A
C672       C1888   1.480       .  S
C676       C1261   1.488       .  S
C679        C680   1.549       .  S
C679        C685   1.543       .  S
C679        C683   1.546       .  S
C679       C1237   1.544       .  S
C680        H687   1.080       .  S
C680        C681   1.362       .  D
C681        C682   1.535       .  S
C681       C1225   1.488       .  S
C682        C686   1.540       .  S
C682        C684   1.538       .  S
C682        H688   1.111       .  S
C683        H689   1.086       .  S
C683        C684   1.371       .  D
C684       C1252   1.495       .  S
C685        H690   1.086       .  S
C685        C686   1.362       .  D
C686       C1213   1.485       .  S
C691        C692   1.543       .  S
C691        C697   1.536       .  S
C691        C695   1.559       .  S
C691       C1201   1.560       .  S
C692        H699   1.086       .  S
C692        C693   1.366       .  D
C693        C694   1.541       .  S
C693       C1189   1.503       .  S
C694        C698   1.541       .  S
C694        C696   1.542       .  S
C694        H700   1.108       .  S
C695        H701   1.075       .  S
C695        C696   1.379       .  D
C696       C1249   1.504       .  S
C697        H702   1.087       .  S
C697        C698   1.362       .  D
C698       C1360   1.494       .  S
C703        C704   1.545       .  S
C703        C709   1.538       .  S
C703        C707   1.540   1_565  S
C703       C1240   1.542       .  S
C704        H711   1.085       .  S
C704        C705   1.376   1_565  D
C705        C706   1.543       .  S
C705       C1180   1.506       .  S
C706        C710   1.538       .  S
C706        C708   1.541       .  S
C706        H712   1.110       .  S
C707        H713   1.083       .  S
C707        C708   1.364       .  D
C708       C1165   1.493       .  S
C709        H714   1.086       .  S
C709        C710   1.360   1_565  D
C710       C1153   1.478       .  S
C715        C716   1.548       .  S
C715        C721   1.534       .  S
C715        C719   1.548       .  S
C715       C1141   1.553       .  S
C716        H723   1.081       .  S
C716        C717   1.368       .  D
C717        C718   1.544       .  S
C717       C1177   1.492       .  S
C718        C722   1.541       .  S
C718        C720   1.550       .  S
C718        H724   1.094       .  S
C719        H725   1.084       .  S
C719        C720   1.379       .  D
C720       C1129   1.525       .  S
C721        H726   1.087       .  S
C721        C722   1.361       .  D
C722       C1393   1.498       .  S
C727        C728   1.555       .  S
C727        C733   1.544       .  S
C727        C731   1.539       .  S
C727       C1204   1.555       .  S
C728        H735   1.082       .  S
C728        C729   1.375       .  D
C729        C730   1.544       .  S
C729       C1120   1.501       .  S
C730        C734   1.546       .  S
C730        C732   1.536       .  S
C730        H736   1.108       .  S
C731        H737   1.086       .  S
C731        C732   1.362       .  D
C732       C1108   1.492       .  S
C733        H738   1.083       .  S
C733        C734   1.371       .  D
C734       C1285   1.509       .  S
C739        C740   1.556       .  S
C739        C745   1.531       .  S
C739        C743   1.542       .  S
C739       C1081   1.555       .  S
C740        H747   1.077       .  S
C740        C741   1.384       .  D
C741        C742   1.549       .  S
C741       C1117   1.521       .  S
C742        C746   1.544       .  S
C742        C744   1.544       .  S
C742        H748   1.106       .  S
C743        H749   1.086       .  S
C743        C744   1.369       .  D
C744       C1093   1.504       .  S
C745        H750   1.087       .  S
C745        C746   1.355       .  D
C746       C1069   1.480       .  S
C751        C752   1.536       .  S
C751        C757   1.559       .  S
C751        C755   1.538       .  S
C751       C1144   1.551       .  S
C752        H759   1.086       .  S
C752        C753   1.364       .  D
C753        C754   1.542       .  S
C753       C1312   1.494       .  S
C754        C758   1.540       .  S
C754        C756   1.542       .  S
C754        H760   1.110       .  S
C755        H761   1.086       .  S
C755        C756   1.364       .  D
C756       C1105   1.494       .  S
C757        H762   1.082       .  S
C757        C758   1.377       .  D
C758       C1057   1.503       .  S
C763        C764   1.546   1_565  S
C763        C769   1.539       .  S
C763        C767   1.559       .  S
C763       C1045   1.561       .  S
C764        H771   1.086       .  S
C764        C765   1.367       .  D
C765        C766   1.538       .  S
C765       C1096   1.499       .  S
C766        C770   1.539       .  S
C766        C768   1.540       .  S
C766        H772   1.110       .  S
C767        H773   1.076       .  S
C767        C768   1.377   1_565  D
C768       C1060   1.497       .  S
C769        H774   1.087       .  S
C769        C770   1.363   1_565  D
C770       C1033   1.492       .  S
C775        C776   1.560       .  S
C775        C781   1.539       .  S
C775        C779   1.541   1_455  S
C775       C1048   1.555       .  S
C776        H783   1.081       .  S
C776        C777   1.380   1_455  D
C777        C778   1.541       .  S
C777       C1021   1.509       .  S
C778        C782   1.541       .  S
C778        C780   1.538       .  S
C778        H784   1.105       .  S
C779        H785   1.086       .  S
C779        C780   1.362       .  D
C780       C1228   1.487       .  S
C781        H786   1.086       .  S
C781        C782   1.365   1_455  D
C782       C1009   1.501       .  S
C787        C788   1.554       .  S
C787        C793   1.534       .  S
C787        C791   1.542       .  S
C787        C997   1.551       .  S
C788        H795   1.083       .  S
C788        C789   1.375       .  D
C789        C790   1.547       .  S
C789       C1024   1.497       .  S
C790        C794   1.545       .  S
C790        C792   1.544       .  S
C790        H796   1.108       .  S
C791        H797   1.086       .  S
C791        C792   1.366       .  D
C792       C1192   1.504       .  S
C793        H798   1.087       .  S
C793        C794   1.363       .  D
C794       C1336   1.497       .  S
C799        C800   1.544       .  S
C799        C805   1.544       .  S
C799        C803   1.555       .  S
C799       C1000   1.557       .  S
C800        H807   1.084       .  S
C800        C801   1.371       .  D
C801        C802   1.544       .  S
C801       C1132   1.507       .  S
C802        C806   1.529       .  S
C802        C804   1.535       .  S
C802        H808   1.109       .  S
C803        H809   1.076       .  S
C803        C804   1.373       .  D
C804        C988   1.490       .  S
C805        H810   1.087       .  S
C805        C806   1.360       .  D
C806       C1264   1.481       .  S
C811        C812   1.542   1_455  S
C811        C817   1.538       .  S
C811        C815   1.559   1_455  S
C811       C1084   1.559       .  S
C812        H819   1.087       .  S
C812        C813   1.365       .  D
C813        C814   1.537       .  S
C813       C1168   1.489       .  S
C814        C818   1.539       .  S
C814        C816   1.539       .  S
C814        H820   1.107       .  S
C815        H821   1.076   1_655  S
C815        C816   1.380       .  D
C816        C985   1.505       .  S
C817        H822   1.087       .  S
C817        C818   1.363   1_455  D
C818        C973   1.494       .  S
In823       O825   2.217       .  S
In823       O826   2.274       .  S
In823       O834   2.271       .  S
In823       O828   2.218       .  S
In823       O830   2.235       .  S
In823       O831   2.290       .  S
In823       O832   2.239       .  S
In823       O835   2.198       .  S
C824        O830   1.261       .  A
C824        O832   1.262       .  A
C824        C952   1.480       .  S
O825        C833   1.259       .  A
O826        C833   1.265       .  A
C827        O834   1.265       .  A
C827        O828   1.259       .  A
C827        C961   1.488       .  S
C829        O831   1.267       .  A
C829        O835   1.256       .  A
C829       C2068   1.483       .  S
C833        C976   1.490       .  S
In836       O838   2.227       .  S
In836       O839   2.238       .  S
In836       O847   2.207       .  S
In836       O841   2.275       .  S
In836       O843   2.270       .  S
In836       O844   2.223       .  S
In836       O845   2.210       .  S
In836       O848   2.268       .  S
C837        O843   1.266       .  A
C837        O845   1.259       .  A
C837       C2089   1.482       .  S
O838        C846   1.262       .  A
O839        C846   1.263       .  A
C840        O847   1.257       .  A
C840        O841   1.266       .  A
C840       C1012   1.475       .  S
C842        O844   1.260       .  A
C842        O848   1.264       .  A
C842        C964   1.486       .  S
C846        C937   1.483       .  S
In849       O851   2.204       .  S
In849       O852   2.266       .  S
In849       O860   2.261       .  S
In849       O854   2.221       .  S
In849       O856   2.231       .  S
In849       O857   2.279       .  S
In849       O858   2.230       .  S
In849       O861   2.197       .  S
C850        O856   1.264       .  A
C850        O858   1.261       .  A
C850        C940   1.482       .  S
O851        C859   1.258       .  A
O852        C859   1.268       .  A
C853        O860   1.265       .  A
C853        O854   1.262       .  A
C853        C925   1.486       .  S
C855        O857   1.269       .  A
C855        O861   1.259       .  A
C855       C2017   1.486       .  S
C859       C1216   1.483       .  S
In862       O864   2.215       .  S
In862       O865   2.260       .  S
In862       O873   2.270       .  S
In862       O867   2.223       .  S
In862       O869   2.250       .  S
In862       O870   2.252       .  S
In862       O871   2.224       .  S
In862       O874   2.227       .  S
C863        O869   1.264       .  A
C863        O871   1.260       .  A
C863        C949   1.481       .  S
O864        C872   1.258       .  A
O865        C872   1.264       .  A
C866        O873   1.263       .  A
C866        O867   1.259       .  A
C866        C913   1.491       .  S
C868        O870   1.262       .  A
C868        O874   1.259       .  A
C868       C1156   1.479       .  S
C872       C2041   1.479       .  S
In875       O877   2.234       .  S
In875       O878   2.263       .  S
In875       O886   2.267       .  S
In875       O880   2.226       .  S
In875       O882   2.252       .  S
In875       O883   2.277       .  S
In875       O884   2.219       .  S
In875       O887   2.222       .  S
C876        O882   1.264       .  A
C876        O884   1.261       .  A
C876        C901   1.482       .  S
O877        C885   1.259       .  A
O878        C885   1.262       .  A
C879        O886   1.263       .  A
C879        O880   1.260       .  A
C879        C916   1.488       .  S
C881        O883   1.264       .  A
C881        O887   1.257       .  A
C881       C1984   1.483       .  S
C885       C1036   1.489       .  S
In888       O890   2.217       .  S
In888       O891   2.255       .  S
In888       O899   2.231       .  S
In888       O893   2.260       .  S
In888       O895   2.274       .  S
In888       O896   2.222       .  S
In888       O897   2.210       .  S
In888       O900   2.273       .  S
C889        O895   1.267       .  A
C889        O897   1.258       .  A
C889       C1996   1.487       .  S
O890        C898   1.259       .  A
O891        C898   1.263       .  A
C892        O899   1.259       .  A
C892        O893   1.264       .  A
C892       C1072   1.478       .  S
C894        O896   1.261       .  A
C894        O900   1.265       .  A
C894        C928   1.490       .  S
C898        C904   1.479       .  S
C901        C902   1.407       .  A
C901        C906   1.414       .  A
C902        C903   1.403       .  A
C902        H907   1.084       .  S
C903        C904   1.413       .  A
C903        C910   1.444       .  S
C904        C905   1.403       .  A
C905        C906   1.395       .  A
C905        H908   1.085       .  S
C906        C909   1.445       .  S
C909        N911   1.157       .  T
C910        N912   1.157       .  T
C913        C914   1.408       .  A
C913        C918   1.416       .  A
C914        C915   1.407       .  A
C914        H919   1.084   1_545  S
C915        C916   1.415       .  A
C915        C922   1.444   1_545  S
C916        C917   1.403       .  A
C917        C918   1.396       .  A
C917        H920   1.085       .  S
C918        C921   1.445       .  S
C921        N923   1.157       .  T
C922        N924   1.158       .  T
C925        C926   1.406       .  A
C925        C930   1.413       .  A
C926        C927   1.406       .  A
C926        H931   1.085       .  S
C927        C928   1.416       .  A
C927        C934   1.443       .  S
C928        C929   1.406       .  A
C929        C930   1.398       .  A
C929        H932   1.085       .  S
C930        C933   1.445       .  S
C933        N935   1.157       .  T
C934        N936   1.157       .  T
C937        C938   1.405       .  A
C937        C942   1.414       .  A
C938        C939   1.398       .  A
C938        H943   1.085       .  S
C939        C940   1.415       .  A
C939        C946   1.445       .  S
C940        C941   1.405       .  A
C941        C942   1.398       .  A
C941        H944   1.085       .  S
C942        C945   1.444       .  S
C945        N947   1.157       .  T
C946        N948   1.158       .  T
C949        C950   1.404       .  A
C949        C954   1.415       .  A
C950        C951   1.400       .  A
C950        H955   1.085       .  S
C951        C952   1.414       .  A
C951        C958   1.444       .  S
C952        C953   1.403       .  A
C953        C954   1.398       .  A
C953        H956   1.085       .  S
C954        C957   1.445       .  S
C957        N959   1.157       .  T
C958        N960   1.157       .  T
C961        C962   1.405       .  A
C961        C966   1.415       .  A
C962        C963   1.397       .  A
C962        H967   1.085       .  S
C963        C964   1.413       .  A
C963        C970   1.445       .  S
C964        C965   1.407       .  A
C965        C966   1.407       .  A
C965        H968   1.085       .  S
C966        C969   1.443   1_655  S
C969        N971   1.157       .  T
C970        N972   1.157       .  T
C973        C974   1.409       .  A
C973        C978   1.412       .  A
C974        C975   1.406       .  A
C974        H979   1.084   1_655  S
C975        C976   1.414       .  A
C975        C982   1.443   1_655  S
C976        C977   1.405       .  A
C977        C978   1.397       .  A
C977        H980   1.085       .  S
C978        C981   1.442       .  S
C981        N983   1.157       .  T
C982        N984   1.157       .  T
C985        C986   1.409       .  A
C985        C990   1.422       .  A
C986        C987   1.407       .  A
C986        H991   1.084   1_655  S
C987        C988   1.409       .  A
C987        C994   1.442       .  S
C988        C989   1.399       .  A
C989        C990   1.403       .  A
C989        H992   1.084       .  S
C990        C993   1.442       .  S
C993        N995   1.157       .  T
C994        N996   1.157   1_655  T
C997        C998   1.411       .  A
C997       C1002   1.420       .  A
C998        C999   1.418       .  A
C998       H1003   1.080       .  S
C999       C1000   1.426       .  A
C999       C1006   1.440       .  S
C1000      C1001   1.410       .  A
C1001      C1002   1.397       .  A
C1001      H1004   1.086       .  S
C1002      C1005   1.447       .  S
C1005      N1007   1.157       .  T
C1006      N1008   1.158       .  T
C1009      C1010   1.415   1_655  A
C1009      C1014   1.416       .  A
C1010      C1011   1.405       .  A
C1010      H1015   1.083       .  S
C1011      C1012   1.405   1_455  A
C1011      C1018   1.443       .  S
C1012      C1013   1.401       .  A
C1013      C1014   1.397       .  A
C1013      H1016   1.086       .  S
C1014      C1017   1.442       .  S
C1017      N1019   1.157       .  T
C1018      N1020   1.157       .  T
C1021      C1022   1.408       .  A
C1021      C1026   1.418       .  A
C1022      C1023   1.400       .  A
C1022      H1027   1.082       .  S
C1023      C1024   1.406       .  A
C1023      C1030   1.439       .  S
C1024      C1025   1.407       .  A
C1025      C1026   1.413       .  A
C1025      H1028   1.084       .  S
C1026      C1029   1.442   1_655  S
C1029      N1031   1.157       .  T
C1030      N1032   1.155       .  T
C1033      C1034   1.406       .  A
C1033      C1038   1.412       .  A
C1034      C1035   1.404       .  A
C1034      H1039   1.085   1_545  S
C1035      C1036   1.415       .  A
C1035      C1042   1.444   1_545  S
C1036      C1037   1.405       .  A
C1037      C1038   1.400       .  A
C1037      H1040   1.085       .  S
C1038      C1041   1.442       .  S
C1041      N1043   1.157       .  T
C1042      N1044   1.157       .  T
C1045      C1046   1.411       .  A
C1045      C1050   1.427       .  A
C1046      C1047   1.399       .  A
C1046      H1051   1.085       .  S
C1047      C1048   1.420       .  A
C1047      C1054   1.447       .  S
C1048      C1049   1.412       .  A
C1049      C1050   1.419       .  A
C1049      H1052   1.079       .  S
C1050      C1053   1.440       .  S
C1053      N1055   1.158       .  T
C1054      N1056   1.157       .  T
C1057      C1058   1.409       .  A
C1057      C1062   1.417       .  A
C1058      C1059   1.410       .  A
C1058      H1063   1.084       .  S
C1059      C1060   1.414       .  A
C1059      C1066   1.443   1_545  S
C1060      C1061   1.402       .  A
C1061      C1062   1.402       .  A
C1061      H1064   1.085       .  S
C1062      C1065   1.442       .  S
C1065      N1067   1.157       .  T
C1066      N1068   1.157       .  T
C1069      C1070   1.401       .  A
C1069      C1074   1.410       .  A
C1070      C1071   1.403       .  A
C1070      H1075   1.085       .  S
C1071      C1072   1.415       .  A
C1071      C1078   1.444       .  S
C1072      C1073   1.402       .  A
C1073      C1074   1.400       .  A
C1073      H1076   1.085       .  S
C1074      C1077   1.443       .  S
C1077      N1079   1.157       .  T
C1078      N1080   1.157       .  T
C1081      C1082   1.413       .  A
C1081      C1086   1.419       .  A
C1082      C1083   1.417       .  A
C1082      H1087   1.078       .  S
C1083      C1084   1.425       .  A
C1083      C1090   1.440       .  S
C1084      C1085   1.412       .  A
C1085      C1086   1.400       .  A
C1085      H1088   1.085       .  S
C1086      C1089   1.446       .  S
C1089      N1091   1.157       .  T
C1090      N1092   1.158       .  T
C1093      C1094   1.407       .  A
C1093      C1098   1.417       .  A
C1094      C1095   1.404       .  A
C1094      H1099   1.085       .  S
C1095      C1096   1.413       .  A
C1095      C1102   1.444       .  S
C1096      C1097   1.405       .  A
C1097      C1098   1.410       .  A
C1097      H1100   1.085       .  S
C1098      C1101   1.442       .  S
C1101      N1103   1.157       .  T
C1102      N1104   1.157       .  T
C1105      C1106   1.404       .  A
C1105      C1110   1.416       .  A
C1106      C1107   1.405       .  A
C1106      H1111   1.085       .  S
C1107      C1108   1.414       .  A
C1107      C1114   1.443       .  S
C1108      C1109   1.403       .  A
C1109      C1110   1.402       .  A
C1109      H1112   1.085       .  S
C1110      C1113   1.444       .  S
C1113      N1115   1.157       .  T
C1114      N1116   1.157       .  T
C1117      C1118   1.417       .  A
C1117      C1122   1.421       .  A
C1118      C1119   1.410       .  A
C1118      H1123   1.081       .  S
C1119      C1120   1.408       .  A
C1119      C1126   1.443       .  S
C1120      C1121   1.400       .  A
C1121      C1122   1.404       .  A
C1121      H1124   1.077       .  S
C1122      C1125   1.443       .  S
C1125      N1127   1.158       .  T
C1126      N1128   1.157       .  T
C1129      C1130   1.414       .  A
C1129      C1134   1.426       .  A
C1130      C1131   1.405       .  A
C1130      H1135   1.083       .  S
C1131      C1132   1.416       .  A
C1131      C1138   1.444       .  S
C1132      C1133   1.403       .  A
C1133      C1134   1.404       .  A
C1133      H1136   1.082       .  S
C1134      C1137   1.441       .  S
C1137      N1139   1.158       .  T
C1138      N1140   1.158       .  T
C1141      C1142   1.410       .  A
C1141      C1146   1.425       .  A
C1142      C1143   1.401       .  A
C1142      H1147   1.084       .  S
C1143      C1144   1.421       .  A
C1143      C1150   1.446       .  S
C1144      C1145   1.410       .  A
C1145      C1146   1.413       .  A
C1145      H1148   1.079       .  S
C1146      C1149   1.441       .  S
C1149      N1151   1.158       .  T
C1150      N1152   1.157       .  T
C1153      C1154   1.400       .  A
C1153      C1158   1.411       .  A
C1154      C1155   1.397       .  A
C1154      H1159   1.085       .  S
C1155      C1156   1.413       .  A
C1155      C1162   1.444       .  S
C1156      C1157   1.406       .  A
C1157      C1158   1.401       .  A
C1157      H1160   1.085       .  S
C1158      C1161   1.444   1_545  S
C1161      N1163   1.157       .  T
C1162      N1164   1.157       .  T
C1165      C1166   1.406       .  A
C1165      C1170   1.415       .  A
C1166      C1167   1.409       .  A
C1166      H1171   1.084       .  S
C1167      C1168   1.413       .  A
C1167      C1174   1.443       .  S
C1168      C1169   1.402       .  A
C1169      C1170   1.396       .  A
C1169      H1172   1.085       .  S
C1170      C1173   1.445       .  S
C1173      N1175   1.157       .  T
C1174      N1176   1.157       .  T
C1177      C1178   1.402       .  A
C1177      C1182   1.408       .  A
C1178      C1179   1.408       .  A
C1178      H1183   1.085       .  S
C1179      C1180   1.419       .  A
C1179      C1186   1.442   1_545  S
C1180      C1181   1.409       .  A
C1181      C1182   1.404       .  A
C1181      H1184   1.083       .  S
C1182      C1185   1.443       .  S
C1185      N1187   1.157       .  T
C1186      N1188   1.157       .  T
C1189      C1190   1.407       .  A
C1189      C1194   1.416       .  A
C1190      C1191   1.412       .  A
C1190      H1195   1.084       .  S
C1191      C1192   1.416       .  A
C1191      C1198   1.443       .  S
C1192      C1193   1.405       .  A
C1193      C1194   1.404       .  A
C1193      H1196   1.085       .  S
C1194      C1197   1.444       .  S
C1197      N1199   1.157       .  T
C1198      N1200   1.157       .  T
C1201      C1202   1.411       .  A
C1201      C1206   1.426       .  A
C1202      C1203   1.399       .  A
C1202      H1207   1.085       .  S
C1203      C1204   1.419       .  A
C1203      C1210   1.446       .  S
C1204      C1205   1.413       .  A
C1205      C1206   1.418       .  A
C1205      H1208   1.079       .  S
C1206      C1209   1.439       .  S
C1209      N1211   1.158       .  T
C1210      N1212   1.157       .  T
C1213      C1214   1.400       .  A
C1213      C1218   1.415       .  A
C1214      C1215   1.396       .  A
C1214      H1219   1.085       .  S
C1215      C1216   1.416       .  A
C1215      C1222   1.445       .  S
C1216      C1217   1.405       .  A
C1217      C1218   1.404       .  A
C1217      H1220   1.085       .  S
C1218      C1221   1.444       .  S
C1221      N1223   1.157       .  T
C1222      N1224   1.157       .  T
C1225      C1226   1.404       .  A
C1225      C1230   1.410       .  A
C1226      C1227   1.406       .  A
C1226      H1231   1.084       .  S
C1227      C1228   1.411       .  A
C1227      C1234   1.443       .  S
C1228      C1229   1.402       .  A
C1229      C1230   1.404       .  A
C1229      H1232   1.085       .  S
C1230      C1233   1.442       .  S
C1233      N1235   1.157       .  T
C1234      N1236   1.157       .  T
C1237      C1238   1.411       .  A
C1237      C1242   1.418       .  A
C1238      C1239   1.403       .  A
C1238      H1243   1.085       .  S
C1239      C1240   1.417       .  A
C1239      C1246   1.444       .  S
C1240      C1241   1.410       .  A
C1241      C1242   1.403       .  A
C1241      H1244   1.081       .  S
C1242      C1245   1.442       .  S
C1245      N1247   1.158       .  T
C1246      N1248   1.157       .  T
C1249      C1250   1.410       .  A
C1249      C1254   1.416       .  A
C1250      C1251   1.411       .  A
C1250      H1255   1.084       .  S
C1251      C1252   1.414       .  A
C1251      C1258   1.443       .  S
C1252      C1253   1.398       .  A
C1253      C1254   1.399       .  A
C1253      H1256   1.084       .  S
C1254      C1257   1.437       .  S
C1257      N1259   1.155       .  T
C1258      N1260   1.157       .  T
C1261      C1262   1.408       .  A
C1261      C1266   1.418       .  A
C1262      C1263   1.404       .  A
C1262      H1267   1.084       .  S
C1263      C1264   1.409       .  A
C1263      C1270   1.444       .  S
C1264      C1265   1.399       .  A
C1265      C1266   1.401       .  A
C1265      H1268   1.084       .  S
C1266      C1269   1.444       .  S
C1269      N1271   1.157   1_655  T
C1270      N1272   1.157       .  T
C1273      C1274   1.405       .  A
C1273      C1278   1.415       .  A
C1274      C1275   1.398       .  A
C1274      H1279   1.085       .  S
C1275      C1276   1.411       .  A
C1275      C1282   1.444       .  S
C1276      C1277   1.406       .  A
C1277      C1278   1.406       .  A
C1277      H1280   1.085       .  S
C1278      C1281   1.443       .  S
C1281      N1283   1.157       .  T
C1282      N1284   1.157       .  T
C1285      C1286   1.407       .  A
C1285      C1290   1.421       .  A
C1286      C1287   1.397       .  A
C1286      H1291   1.074       .  S
C1287      C1288   1.412       .  A
C1287      C1294   1.446       .  S
C1288      C1289   1.404       .  A
C1289      C1290   1.405       .  A
C1289      H1292   1.085       .  S
C1290      C1293   1.442       .  S
C1293      N1295   1.157       .  T
C1294      N1296   1.157       .  T
C1297      C1298   1.403       .  A
C1297      C1302   1.412       .  A
C1298      C1299   1.396       .  A
C1298      H1303   1.085       .  S
C1299      C1300   1.414       .  A
C1299      C1306   1.446       .  S
C1300      C1301   1.405       .  A
C1301      C1302   1.402       .  A
C1301      H1304   1.085       .  S
C1302      C1305   1.444       .  S
C1305      N1307   1.157       .  T
C1306      N1308   1.158       .  T
C1309      C1310   1.406       .  A
C1309      C1314   1.416       .  A
C1310      C1311   1.405       .  A
C1310      H1315   1.085       .  S
C1311      C1312   1.415       .  A
C1311      C1318   1.444       .  S
C1312      C1313   1.403       .  A
C1313      C1314   1.402       .  A
C1313      H1316   1.085       .  S
C1314      C1317   1.444       .  S
C1317      N1319   1.157   1_545  T
C1318      N1320   1.157       .  T
C1321      C1322   1.404       .  A
C1321      C1326   1.415       .  A
C1322      C1323   1.399       .  A
C1322      H1327   1.085       .  S
C1323      C1324   1.415       .  A
C1323      C1330   1.444       .  S
C1324      C1325   1.408       .  A
C1325      C1326   1.408       .  A
C1325      H1328   1.084       .  S
C1326      C1329   1.444       .  S
C1329      N1331   1.157       .  T
C1330      N1332   1.157       .  T
C1333      C1334   1.407       .  A
C1333      C1338   1.413       .  A
C1334      C1335   1.401       .  A
C1334      H1339   1.085       .  S
C1335      C1336   1.413       .  A
C1335      C1342   1.442       .  S
C1336      C1337   1.410       .  A
C1337      C1338   1.403       .  A
C1337      H1340   1.085       .  S
C1338      C1341   1.443       .  S
C1341      N1343   1.157       .  T
C1342      N1344   1.157       .  T
C1345      C1346   1.405       .  A
C1345      C1350   1.414       .  A
C1346      C1347   1.397       .  A
C1346      H1351   1.085       .  S
C1347      C1348   1.414       .  A
C1347      C1354   1.445       .  S
C1348      C1349   1.403       .  A
C1349      C1350   1.397       .  A
C1349      H1352   1.085       .  S
C1350      C1353   1.444       .  S
C1353      N1355   1.157       .  T
C1354      N1356   1.158       .  T
C1357      C1358   1.405       .  A
C1357      C1362   1.413       .  A
C1358      C1359   1.398       .  A
C1358      H1363   1.085       .  S
C1359      C1360   1.414       .  A
C1359      C1366   1.441       .  S
C1360      C1361   1.408       .  A
C1361      C1362   1.402       .  A
C1361      H1364   1.085       .  S
C1362      C1365   1.444       .  S
C1365      N1367   1.157       .  T
C1366      N1368   1.157       .  T
C1369      C1370   1.404       .  A
C1369      C1374   1.414       .  A
C1370      C1371   1.395       .  A
C1370      H1375   1.085       .  S
C1371      C1372   1.411       .  A
C1371      C1378   1.445       .  S
C1372      C1373   1.403       .  A
C1373      C1374   1.399       .  A
C1373      H1376   1.085       .  S
C1374      C1377   1.444       .  S
C1377      N1379   1.157       .  T
C1378      N1380   1.157       .  T
C1381      C1382   1.405       .  A
C1381      C1386   1.414       .  A
C1382      C1383   1.398       .  A
C1382      H1387   1.085       .  S
C1383      C1384   1.416       .  A
C1383      C1390   1.445       .  S
C1384      C1385   1.405       .  A
C1385      C1386   1.403       .  A
C1385      H1388   1.085       .  S
C1386      C1389   1.443       .  S
C1389      N1391   1.157       .  T
C1390      N1392   1.158       .  T
C1393      C1394   1.410       .  A
C1393      C1398   1.413       .  A
C1394      C1395   1.406       .  A
C1394      H1399   1.085       .  S
C1395      C1396   1.415       .  A
C1395      C1402   1.444       .  S
C1396      C1397   1.405       .  A
C1397      C1398   1.399       .  A
C1397      H1400   1.085       .  S
C1398      C1401   1.441       .  S
C1401      N1403   1.157       .  T
C1402      N1404   1.157       .  T
C1405      C1406   1.403       .  A
C1405      C1410   1.413       .  A
C1406      C1407   1.392       .  A
C1406      H1411   1.085       .  S
C1407      C1408   1.413       .  A
C1407      C1414   1.445       .  S
C1408      C1409   1.406       .  A
C1409      C1410   1.399       .  A
C1409      H1412   1.085       .  S
C1410      C1413   1.445       .  S
C1413      N1415   1.158       .  T
C1414      N1416   1.157       .  T
C1417      C1418   1.405       .  A
C1417      C1422   1.413       .  A
C1418      C1419   1.399       .  A
C1418      H1423   1.085       .  S
C1419      C1420   1.410       .  A
C1419      C1426   1.445       .  S
C1420      C1421   1.402       .  A
C1421      C1422   1.399       .  A
C1421      H1424   1.085   1_565  S
C1422      C1425   1.444   1_565  S
C1425      N1427   1.157       .  T
C1426      N1428   1.157       .  T
C1429      C1430   1.404       .  A
C1429      C1434   1.413       .  A
C1430      C1431   1.399       .  A
C1430      H1435   1.085       .  S
C1431      C1432   1.414       .  A
C1431      C1438   1.445       .  S
C1432      C1433   1.404       .  A
C1433      C1434   1.397       .  A
C1433      H1436   1.085       .  S
C1434      C1437   1.444       .  S
C1437      N1439   1.157       .  T
C1438      N1440   1.157       .  T
C1441      C1442   1.403       .  A
C1441      C1446   1.413       .  A
C1442      C1443   1.401       .  A
C1442      H1447   1.085       .  S
C1443      C1444   1.416       .  A
C1443      C1450   1.444       .  S
C1444      C1445   1.404       .  A
C1445      C1446   1.399       .  A
C1445      H1448   1.085       .  S
C1446      C1449   1.445       .  S
C1449      N1451   1.157       .  T
C1450      N1452   1.157       .  T
C1453      C1454   1.405       .  A
C1453      C1458   1.414       .  A
C1454      C1455   1.395       .  A
C1454      H1459   1.085       .  S
C1455      C1456   1.411       .  A
C1455      C1462   1.445       .  S
C1456      C1457   1.405       .  A
C1457      C1458   1.400       .  A
C1457      H1460   1.085       .  S
C1458      C1461   1.444       .  S
C1461      N1463   1.157       .  T
C1462      N1464   1.157       .  T
C1465      C1466   1.408   1_455  A
C1465      C1470   1.416       .  A
C1466      C1467   1.405       .  A
C1466      H1471   1.084       .  S
C1467      C1468   1.414   1_655  A
C1467      C1474   1.444       .  S
C1468      C1469   1.404       .  A
C1469      C1470   1.396       .  A
C1469      H1472   1.085       .  S
C1470      C1473   1.445       .  S
C1473      N1475   1.157       .  T
C1474      N1476   1.157       .  T
C1477      C1478   1.401   1_545  A
C1477      C1482   1.412       .  A
C1478      C1479   1.399       .  A
C1478      H1483   1.085       .  S
C1479      C1480   1.416       .  A
C1479      C1486   1.444       .  S
C1480      C1481   1.407   1_565  A
C1481      C1482   1.403       .  A
C1481      H1484   1.085       .  S
C1482      C1485   1.444       .  S
C1485      N1487   1.157       .  T
C1486      N1488   1.157       .  T
C1489      C1490   1.404       .  A
C1489      C1494   1.415       .  A
C1490      C1491   1.402       .  A
C1490      H1495   1.085       .  S
C1491      C1492   1.414       .  A
C1491      C1498   1.442       .  S
C1492      C1493   1.407   1_565  A
C1493      C1494   1.410   1_545  A
C1493      H1496   1.085       .  S
C1494      C1497   1.442   1_565  S
C1497      N1499   1.157       .  T
C1498      N1500   1.157       .  T
C1501      C1502   1.405       .  A
C1501      C1506   1.409       .  A
C1502      C1503   1.397       .  A
C1502      H1507   1.085       .  S
C1503      C1504   1.409       .  A
C1503      C1510   1.444       .  S
C1504      C1505   1.407       .  A
C1505      C1506   1.401       .  A
C1505      H1508   1.085       .  S
C1506      C1509   1.443       .  S
C1509      N1511   1.157       .  T
C1510      N1512   1.157       .  T
C1513      C1514   1.411       .  A
C1513      C1518   1.418       .  A
C1514      C1515   1.405       .  A
C1514      H1519   1.081       .  S
C1515      C1516   1.419       .  A
C1515      C1522   1.443       .  S
C1516      C1517   1.411       .  A
C1517      C1518   1.406       .  A
C1517      H1520   1.084       .  S
C1518      C1521   1.444       .  S
C1521      N1523   1.157       .  T
C1522      N1524   1.158       .  T
C1525      C1526   1.408       .  A
C1525      C1530   1.412       .  A
C1526      C1527   1.406       .  A
C1526      H1531   1.085       .  S
C1527      C1528   1.415       .  A
C1527      C1534   1.443       .  S
C1528      C1529   1.408       .  A
C1529      C1530   1.404       .  A
C1529      H1532   1.084       .  S
C1530      C1533   1.443       .  S
C1533      N1535   1.157       .  T
C1534      N1536   1.157       .  T
C1537      C1538   1.408       .  A
C1537      C1542   1.418       .  A
C1538      C1539   1.406       .  A
C1538      H1543   1.084       .  S
C1539      C1540   1.413       .  A
C1539      C1546   1.443       .  S
C1540      C1541   1.403       .  A
C1541      C1542   1.398       .  A
C1541      H1544   1.084       .  S
C1542      C1545   1.443       .  S
C1545      N1547   1.157       .  T
C1546      N1548   1.157       .  T
C1549      C1550   1.400       .  A
C1549      C1554   1.407       .  A
C1550      C1551   1.399       .  A
C1550      H1555   1.084       .  S
C1551      C1552   1.414       .  A
C1551      C1558   1.444       .  S
C1552      C1553   1.408   1_655  A
C1553      C1554   1.404   1_455  A
C1553      H1556   1.084       .  S
C1554      C1557   1.444   1_655  S
C1557      N1559   1.157       .  T
C1558      N1560   1.157       .  T
C1561      C1562   1.405       .  A
C1561      C1566   1.415       .  A
C1562      C1563   1.402       .  A
C1562      H1567   1.085       .  S
C1563      C1564   1.416       .  A
C1563      C1570   1.444       .  S
C1564      C1565   1.404       .  A
C1565      C1566   1.405       .  A
C1565      H1568   1.085       .  S
C1566      C1569   1.443       .  S
C1569      N1571   1.157       .  T
C1570      N1572   1.157       .  T
C1573      C1574   1.407   1_655  A
C1573      C1578   1.413       .  A
C1574      C1575   1.405       .  A
C1574      H1579   1.083       .  S
C1575      C1576   1.413       .  A
C1575      C1582   1.443       .  S
C1576      C1577   1.407       .  A
C1577      C1578   1.401   1_455  A
C1577      H1580   1.085       .  S
C1578      C1581   1.444       .  S
C1581      N1583   1.157       .  T
C1582      N1584   1.157       .  T
C1585      C1586   1.412       .  A
C1585      C1590   1.419       .  A
C1586      C1587   1.415       .  A
C1586      H1591   1.080       .  S
C1587      C1588   1.423       .  A
C1587      C1594   1.440       .  S
C1588      C1589   1.407       .  A
C1589      C1590   1.392       .  A
C1589      H1592   1.086       .  S
C1590      C1593   1.446       .  S
C1593      N1595   1.157       .  T
C1594      N1596   1.158       .  T
C1597      C1598   1.406       .  A
C1597      C1602   1.413       .  A
C1598      C1599   1.404       .  A
C1598      H1603   1.085       .  S
C1599      C1600   1.417       .  A
C1599      C1606   1.444       .  S
C1600      C1601   1.405       .  A
C1601      C1602   1.405       .  A
C1601      H1604   1.085       .  S
C1602      C1605   1.443       .  S
C1605      N1607   1.157       .  T
C1606      N1608   1.157       .  T
C1609      C1610   1.406       .  A
C1609      C1614   1.412       .  A
C1610      C1611   1.404       .  A
C1610      H1615   1.085       .  S
C1611      C1612   1.415       .  A
C1611      C1618   1.443       .  S
C1612      C1613   1.405       .  A
C1613      C1614   1.399       .  A
C1613      H1616   1.085   1_655  S
C1614      C1617   1.442   1_655  S
C1617      N1619   1.157       .  T
C1618      N1620   1.157       .  T
C1621      C1622   1.404       .  A
C1621      C1626   1.411       .  A
C1622      C1623   1.405       .  A
C1622      H1627   1.085       .  S
C1623      C1624   1.413       .  A
C1623      C1630   1.443       .  S
C1624      C1625   1.406       .  A
C1625      C1626   1.399       .  A
C1625      H1628   1.085       .  S
C1626      C1629   1.444       .  S
C1629      N1631   1.157       .  T
C1630      N1632   1.157       .  T
C1633      C1634   1.401       .  A
C1633      C1638   1.413   1_455  A
C1634      C1635   1.399       .  A
C1634      H1639   1.085       .  S
C1635      C1636   1.415       .  A
C1635      C1642   1.443       .  S
C1636      C1637   1.409       .  A
C1637      C1638   1.408   1_455  A
C1637      H1640   1.084   1_455  S
C1638      C1641   1.443       .  S
C1641      N1643   1.157       .  T
C1642      N1644   1.157       .  T
C1645      C1646   1.410       .  A
C1645      C1650   1.426       .  A
C1646      C1647   1.397       .  A
C1646      H1651   1.085       .  S
C1647      C1648   1.419       .  A
C1647      C1654   1.446       .  S
C1648      C1649   1.411       .  A
C1649      C1650   1.416       .  A
C1649      H1652   1.079       .  S
C1650      C1653   1.439       .  S
C1653      N1655   1.158       .  T
C1654      N1656   1.157       .  T
C1657      C1658   1.402   1_545  A
C1657      C1662   1.418       .  A
C1658      C1659   1.398       .  A
C1658      H1663   1.084       .  S
C1659      C1660   1.414       .  A
C1659      C1666   1.446       .  S
C1660      C1661   1.401   1_565  A
C1661      C1662   1.402       .  A
C1661      H1664   1.085       .  S
C1662      C1665   1.444       .  S
C1665      N1667   1.157       .  T
C1666      N1668   1.157       .  T
C1669      C1670   1.410       .  A
C1669      C1674   1.419       .  A
C1670      C1671   1.411       .  A
C1670      H1675   1.078       .  S
C1671      C1672   1.424       .  A
C1671      C1678   1.440       .  S
C1672      C1673   1.411       .  A
C1673      C1674   1.399       .  A
C1673      H1676   1.085       .  S
C1674      C1677   1.446       .  S
C1677      N1679   1.157       .  T
C1678      N1680   1.158       .  T
C1681      C1682   1.411       .  A
C1681      C1686   1.417       .  A
C1682      C1683   1.408   1_565  A
C1682      H1687   1.084       .  S
C1683      C1684   1.410   1_545  A
C1683      C1690   1.443       .  S
C1684      C1685   1.400       .  A
C1685      C1686   1.399       .  A
C1685      H1688   1.079       .  S
C1686      C1689   1.442       .  S
C1689      N1691   1.157       .  T
C1690      N1692   1.157       .  T
C1693      C1694   1.407       .  A
C1693      C1698   1.424       .  A
C1694      C1695   1.397       .  A
C1694      H1699   1.084       .  S
C1695      C1696   1.422       .  A
C1695      C1702   1.446       .  S
C1696      C1697   1.409       .  A
C1697      C1698   1.412       .  A
C1697      H1700   1.081       .  S
C1698      C1701   1.442       .  S
C1701      N1703   1.158       .  T
C1702      N1704   1.157       .  T
C1705      C1706   1.402       .  A
C1705      C1710   1.412       .  A
C1706      C1707   1.405       .  A
C1706      H1711   1.085       .  S
C1707      C1708   1.411       .  A
C1707      C1714   1.442       .  S
C1708      C1709   1.404       .  A
C1709      C1710   1.404       .  A
C1709      H1712   1.085       .  S
C1710      C1713   1.444       .  S
C1713      N1715   1.157       .  T
C1714      N1716   1.157       .  T
C1717      C1718   1.400       .  A
C1717      C1722   1.416       .  A
C1718      C1719   1.399       .  A
C1718      H1723   1.087       .  S
C1719      C1720   1.414       .  A
C1719      C1726   1.445       .  S
C1720      C1721   1.402       .  A
C1721      C1722   1.403       .  A
C1721      H1724   1.086       .  S
C1722      C1725   1.444       .  S
C1725      N1727   1.157       .  T
C1726      N1728   1.157       .  T
C1729      C1730   1.410       .  A
C1729      C1734   1.427       .  A
C1730      C1731   1.396       .  A
C1730      H1735   1.086       .  S
C1731      C1732   1.419       .  A
C1731      C1738   1.446       .  S
C1732      C1733   1.409       .  A
C1733      C1734   1.412       .  A
C1733      H1736   1.079       .  S
C1734      C1737   1.440       .  S
C1737      N1739   1.158       .  T
C1738      N1740   1.157       .  T
C1741      C1742   1.404       .  A
C1741      C1746   1.410       .  A
C1742      C1743   1.405       .  A
C1742      H1747   1.085       .  S
C1743      C1744   1.410       .  A
C1743      C1750   1.443       .  S
C1744      C1745   1.402       .  A
C1745      C1746   1.402       .  A
C1745      H1748   1.084       .  S
C1746      C1749   1.442       .  S
C1749      N1751   1.157       .  T
C1750      N1752   1.157       .  T
C1753      C1754   1.407       .  A
C1753      C1758   1.414       .  A
C1754      C1755   1.404       .  A
C1754      H1759   1.084       .  S
C1755      C1756   1.413       .  A
C1755      C1762   1.443       .  S
C1756      C1757   1.406       .  A
C1757      C1758   1.401       .  A
C1757      H1760   1.085       .  S
C1758      C1761   1.444       .  S
C1761      N1763   1.157       .  T
C1762      N1764   1.157       .  T
C1765      C1766   1.402       .  A
C1765      C1770   1.416       .  A
C1766      C1767   1.393   1_556  A
C1766      H1771   1.085       .  S
C1767      C1768   1.412       .  A
C1767      C1774   1.446       .  S
C1768      C1769   1.405       .  A
C1769      C1770   1.409   1_554  A
C1769      H1772   1.084       .  S
C1770      C1773   1.443       .  S
C1773      N1775   1.157       .  T
C1774      N1776   1.157       .  T
C1777      C1778   1.402       .  A
C1777      C1782   1.421       .  A
C1778      C1779   1.397       .  A
C1778      H1783   1.081       .  S
C1779      C1780   1.414       .  A
C1779      C1786   1.446       .  S
C1780      C1781   1.401       .  A
C1781      C1782   1.406       .  A
C1781      H1784   1.085       .  S
C1782      C1785   1.444       .  S
C1785      N1787   1.158       .  T
C1786      N1788   1.157       .  T
C1789      C1790   1.405       .  A
C1789      C1794   1.412   1_545  A
C1790      C1791   1.394   1_554  A
C1790      H1795   1.085       .  S
C1791      C1792   1.408       .  A
C1791      C1798   1.446       .  S
C1792      C1793   1.405   1_545  A
C1793      C1794   1.405   1_556  A
C1793      H1796   1.085       .  S
C1794      C1797   1.443       .  S
C1797      N1799   1.157       .  T
C1798      N1800   1.158       .  T
C1801      C1802   1.404       .  A
C1801      C1806   1.414       .  A
C1802      C1803   1.396       .  A
C1802      H1807   1.085       .  S
C1803      C1804   1.415       .  A
C1803      C1810   1.445       .  S
C1804      C1805   1.406       .  A
C1805      C1806   1.402       .  A
C1805      H1808   1.085       .  S
C1806      C1809   1.444       .  S
C1809      N1811   1.157       .  T
C1810      N1812   1.157       .  T
C1813      C1814   1.408       .  A
C1813      C1818   1.414       .  A
C1814      C1815   1.402       .  A
C1814      H1819   1.085       .  S
C1815      C1816   1.412       .  A
C1815      C1822   1.444       .  S
C1816      C1817   1.402       .  A
C1817      C1818   1.396       .  A
C1817      H1820   1.085       .  S
C1818      C1821   1.442       .  S
C1821      N1823   1.157       .  T
C1822      N1824   1.157       .  T
C1825      C1826   1.407       .  A
C1825      C1830   1.408   1_545  A
C1826      C1827   1.410   1_554  A
C1826      H1831   1.084       .  S
C1827      C1828   1.412       .  A
C1827      C1834   1.443       .  S
C1828      C1829   1.403   1_545  A
C1829      C1830   1.393   1_556  A
C1829      H1832   1.085       .  S
C1830      C1833   1.445       .  S
C1833      N1835   1.157       .  T
C1834      N1836   1.157       .  T
C1837      C1838   1.403       .  A
C1837      C1842   1.415       .  A
C1838      C1839   1.402       .  A
C1838      H1843   1.085       .  S
C1839      C1840   1.415       .  A
C1839      C1846   1.444   1_565  S
C1840      C1841   1.404       .  A
C1841      C1842   1.402       .  A
C1841      H1844   1.085       .  S
C1842      C1845   1.442       .  S
C1845      N1847   1.157       .  T
C1846      N1848   1.157       .  T
C1849      C1850   1.401       .  A
C1849      C1854   1.407       .  A
C1850      C1851   1.397   1_556  A
C1850      H1855   1.086       .  S
C1851      C1852   1.410       .  A
C1851      C1858   1.445       .  S
C1852      C1853   1.405       .  A
C1853      C1854   1.404   1_554  A
C1853      H1856   1.085       .  S
C1854      C1857   1.443       .  S
C1857      N1859   1.157       .  T
C1858      N1860   1.157       .  T
C1861      C1862   1.404       .  A
C1861      C1866   1.415       .  A
C1862      C1863   1.397       .  A
C1862      H1867   1.085       .  S
C1863      C1864   1.415       .  A
C1863      C1870   1.445       .  S
C1864      C1865   1.406       .  A
C1865      C1866   1.403       .  A
C1865      H1868   1.085       .  S
C1866      C1869   1.444       .  S
C1869      N1871   1.157       .  T
C1870      N1872   1.157       .  T
C1873      C1874   1.400       .  A
C1873      C1878   1.414       .  A
C1874      C1875   1.402       .  A
C1874      H1879   1.085       .  S
C1875      C1876   1.416       .  A
C1875      C1882   1.444       .  S
C1876      C1877   1.399       .  A
C1877      C1878   1.399       .  A
C1877      H1880   1.085       .  S
C1878      C1881   1.445       .  S
C1881      N1883   1.157       .  T
C1882      N1884   1.157       .  T
C1885      C1886   1.406       .  A
C1885      C1890   1.412       .  A
C1886      C1887   1.407   1_556  A
C1886      H1891   1.085   1_655  S
C1887      C1888   1.411       .  A
C1887      C1894   1.442   1_655  S
C1888      C1889   1.404       .  A
C1889      C1890   1.398   1_554  A
C1889      H1892   1.085       .  S
C1890      C1893   1.445       .  S
C1893      N1895   1.157       .  T
C1894      N1896   1.157       .  T
C1897      C1898   1.404       .  A
C1897      C1902   1.415       .  A
C1898      C1899   1.396       .  A
C1898      H1903   1.085       .  S
C1899      C1900   1.414       .  A
C1899      C1906   1.445       .  S
C1900      C1901   1.404       .  A
C1901      C1902   1.398       .  A
C1901      H1904   1.085       .  S
C1902      C1905   1.444       .  S
C1905      N1907   1.157       .  T
C1906      N1908   1.157       .  T
C1909      C1910   1.404       .  A
C1909      C1914   1.414       .  A
C1910      C1911   1.398       .  A
C1910      H1915   1.085       .  S
C1911      C1912   1.413       .  A
C1911      C1918   1.445       .  S
C1912      C1913   1.405       .  A
C1913      C1914   1.402       .  A
C1913      H1916   1.085       .  S
C1914      C1917   1.443       .  S
C1917      N1919   1.157       .  T
C1918      N1920   1.157       .  T
C1921      C1922   1.409       .  A
C1921      C1926   1.412       .  A
C1922      C1923   1.403   1_455  A
C1922      H1927   1.084   1_455  S
C1923      C1924   1.408   1_655  A
C1923      C1930   1.443       .  S
C1924      C1925   1.405       .  A
C1925      C1926   1.400       .  A
C1925      H1928   1.085       .  S
C1926      C1929   1.444       .  S
C1929      N1931   1.157       .  T
C1930      N1932   1.157       .  T
C1933      C1934   1.406       .  A
C1933      C1938   1.412       .  A
C1934      C1935   1.410   1_556  A
C1934      H1939   1.084   1_655  S
C1935      C1936   1.415       .  A
C1935      C1942   1.442   1_655  S
C1936      C1937   1.405       .  A
C1937      C1938   1.395   1_554  A
C1937      H1940   1.085       .  S
C1938      C1941   1.446       .  S
C1941      N1943   1.157       .  T
C1942      N1944   1.157       .  T
C1945      C1946   1.404       .  A
C1945      C1950   1.414       .  A
C1946      C1947   1.398       .  A
C1946      H1951   1.085       .  S
C1947      C1948   1.414       .  A
C1947      C1954   1.444       .  S
C1948      C1949   1.404       .  A
C1949      C1950   1.397       .  A
C1949      H1952   1.085       .  S
C1950      C1953   1.445       .  S
C1953      N1955   1.157       .  T
C1954      N1956   1.157       .  T
C1957      C1958   1.404       .  A
C1957      C1962   1.414       .  A
C1958      C1959   1.399       .  A
C1958      H1963   1.085       .  S
C1959      C1960   1.414       .  A
C1959      C1966   1.445       .  S
C1960      C1961   1.407       .  A
C1961      C1962   1.406       .  A
C1961      H1964   1.085       .  S
C1962      C1965   1.444       .  S
C1965      N1967   1.157       .  T
C1966      N1968   1.157       .  T
C1969      C1970   1.407       .  A
C1969      C1974   1.417       .  A
C1970      C1971   1.404       .  A
C1970      H1975   1.084       .  S
C1971      C1972   1.413       .  A
C1971      C1978   1.445       .  S
C1972      C1973   1.398       .  A
C1973      C1974   1.397       .  A
C1973      H1976   1.085       .  S
C1974      C1977   1.444   1_455  S
C1977      N1979   1.157       .  T
C1978      N1980   1.157       .  T
C1981      C1982   1.406       .  A
C1981      C1986   1.411       .  A
C1982      C1983   1.408       .  A
C1982      H1987   1.084   1_545  S
C1983      C1984   1.413       .  A
C1983      C1990   1.443   1_545  S
C1984      C1985   1.403       .  A
C1985      C1986   1.395       .  A
C1985      H1988   1.085       .  S
C1986      C1989   1.446       .  S
C1989      N1991   1.157       .  T
C1990      N1992   1.157       .  T
C1993      C1994   1.404       .  A
C1993      C1998   1.415       .  A
C1994      C1995   1.395       .  A
C1994      H1999   1.085       .  S
C1995      C1996   1.416       .  A
C1995      C2002   1.446       .  S
C1996      C1997   1.406       .  A
C1997      C1998   1.408       .  A
C1997      H2000   1.084       .  S
C1998      C2001   1.442       .  S
C2001      N2003   1.157       .  T
C2002      N2004   1.158       .  T
C2005      C2006   1.404       .  A
C2005      C2010   1.414       .  A
C2006      C2007   1.398       .  A
C2006      H2011   1.085       .  S
C2007      C2008   1.411       .  A
C2007      C2014   1.444       .  S
C2008      C2009   1.404       .  A
C2009      C2010   1.401       .  A
C2009      H2012   1.085       .  S
C2010      C2013   1.444       .  S
C2013      N2015   1.157       .  T
C2014      N2016   1.157       .  T
C2017      C2018   1.408       .  A
C2017      C2022   1.415       .  A
C2018      C2019   1.410       .  A
C2018      H2023   1.084       .  S
C2019      C2020   1.412       .  A
C2019      C2026   1.443       .  S
C2020      C2021   1.402       .  A
C2021      C2022   1.392       .  A
C2021      H2024   1.085       .  S
C2022      C2025   1.446       .  S
C2025      N2027   1.157       .  T
C2026      N2028   1.157       .  T
C2029      C2030   1.404       .  A
C2029      C2034   1.414       .  A
C2030      C2031   1.395       .  A
C2030      H2035   1.085       .  S
C2031      C2032   1.414       .  A
C2031      C2038   1.445       .  S
C2032      C2033   1.406       .  A
C2033      C2034   1.400       .  A
C2033      H2036   1.085       .  S
C2034      C2037   1.444       .  S
C2037      N2039   1.157       .  T
C2038      N2040   1.157       .  T
C2041      C2042   1.404       .  A
C2041      C2046   1.412       .  A
C2042      C2043   1.396       .  A
C2042      H2047   1.085       .  S
C2043      C2044   1.411       .  A
C2043      C2050   1.446       .  S
C2044      C2045   1.404       .  A
C2045      C2046   1.404       .  A
C2045      H2048   1.085   1_545  S
C2046      C2049   1.443   1_545  S
C2049      N2051   1.157       .  T
C2050      N2052   1.158       .  T
C2053      C2054   1.404       .  A
C2053      C2058   1.411       .  A
C2054      C2055   1.402       .  A
C2054      H2059   1.085       .  S
C2055      C2056   1.414       .  A
C2055      C2062   1.444       .  S
C2056      C2057   1.403       .  A
C2057      C2058   1.393       .  A
C2057      H2060   1.085   1_545  S
C2058      C2061   1.446   1_545  S
C2061      N2063   1.157       .  T
C2062      N2064   1.157       .  T
C2065      C2066   1.402       .  A
C2065      C2070   1.417       .  A
C2066      C2067   1.392       .  A
C2066      H2071   1.085       .  S
C2067      C2068   1.414       .  A
C2067      C2074   1.446       .  S
C2068      C2069   1.406       .  A
C2069      C2070   1.411       .  A
C2069      H2072   1.084   1_655  S
C2070      C2073   1.443   1_655  S
C2073      N2075   1.157       .  T
C2074      N2076   1.157       .  T
C2077      C2078   1.405       .  A
C2077      C2082   1.414       .  A
C2078      C2079   1.398       .  A
C2078      H2083   1.085       .  S
C2079      C2080   1.413       .  A
C2079      C2086   1.445       .  S
C2080      C2081   1.405       .  A
C2081      C2082   1.403       .  A
C2081      H2084   1.085       .  S
C2082      C2085   1.443       .  S
C2085      N2087   1.157       .  T
C2086      N2088   1.157       .  T
C2089      C2090   1.402       .  A
C2089      C2094   1.415       .  A
C2090      C2091   1.393       .  A
C2090      H2095   1.085       .  S
C2091      C2092   1.412       .  A
C2091      C2098   1.446       .  S
C2092      C2093   1.404       .  A
C2093      C2094   1.408       .  A
C2093      H2096   1.084       .  S
C2094      C2097   1.443       .  S
C2097      N2099   1.157       .  T
C2098      N2100   1.157       .  T
C2101      C2102   1.403       .  A
C2101      C2106   1.412       .  A
C2102      C2103   1.397       .  A
C2102      H2107   1.085       .  S
C2103      C2104   1.413       .  A
C2103      C2110   1.444       .  S
C2104      C2105   1.404       .  A
C2105      C2106   1.396       .  A
C2105      H2108   1.085       .  S
C2106      C2109   1.445       .  S
C2109      N2111   1.157       .  T
C2110      N2112   1.157       .  T
C2113      C2114   1.406       .  A
C2113      C2118   1.415       .  A
C2114      C2115   1.402       .  A
C2114      H2119   1.085       .  S
C2115      C2116   1.414       .  A
C2115      C2122   1.444       .  S
C2116      C2117   1.404       .  A
C2117      C2118   1.396       .  A
C2117      H2120   1.085       .  S
C2118      C2121   1.445       .  S
C2121      N2123   1.157       .  T
C2122      N2124   1.157       .  T
C2125      C2126   1.410       .  A
C2125      C2130   1.412       .  A
C2126      C2127   1.402       .  A
C2126      H2131   1.084       .  S
C2127      C2128   1.408   1_455  A
C2127      C2134   1.443       .  S
C2128      C2129   1.405       .  A
C2129      C2130   1.399   1_655  A
C2129      H2132   1.085       .  S
C2130      C2133   1.442       .  S
C2133      N2135   1.157       .  T
C2134      N2136   1.157       .  T
C2137      C2138   1.407   1_455  A
C2137      C2142   1.411       .  A
C2138      C2139   1.404       .  A
C2138      H2143   1.085       .  S
C2139      C2140   1.413       .  A
C2139      C2146   1.443       .  S
C2140      C2141   1.409       .  A
C2141      C2142   1.404   1_655  A
C2141      H2144   1.081       .  S
C2142      C2145   1.444       .  S
C2145      N2147   1.157       .  T
C2146      N2148   1.157       .  T
C2149      C2150   1.410       .  A
C2149      C2154   1.415       .  A
C2150      C2151   1.405       .  A
C2150      H2155   1.084       .  S
C2151      C2152   1.412       .  A
C2151      C2158   1.443       .  S
C2152      C2153   1.404       .  A
C2153      C2154   1.400       .  A
C2153      H2156   1.085       .  S
C2154      C2157   1.442       .  S
C2157      N2159   1.157       .  T
C2158      N2160   1.157       .  T
C2161      C2162   1.411       .  A
C2161      C2166   1.422       .  A
C2162      C2163   1.407       .  A
C2162      H2167   1.083       .  S
C2163      C2164   1.420       .  A
C2163      C2170   1.445       .  S
C2164      C2165   1.410       .  A
C2165      C2166   1.407       .  A
C2165      H2168   1.080       .  S
C2166      C2169   1.444       .  S
C2169      N2171   1.157       .  T
C2170      N2172   1.157       .  T
C2173      C2174   1.408       .  A
C2173      C2178   1.415       .  A
C2174      C2175   1.408       .  A
C2174      H2179   1.084       .  S
C2175      C2176   1.413       .  A
C2175      C2182   1.443       .  S
C2176      C2177   1.403       .  A
C2177      C2178   1.402       .  A
C2177      H2180   1.085       .  S
C2178      C2181   1.442       .  S
C2181      N2183   1.157       .  T
C2182      N2184   1.157       .  T
C2185      C2186   1.404       .  A
C2185      C2190   1.422       .  A
C2186      C2187   1.396       .  A
C2186      H2191   1.078       .  S
C2187      C2188   1.412       .  A
C2187      C2194   1.446       .  S
C2188      C2189   1.400       .  A
C2189      C2190   1.404       .  A
C2189      H2192   1.085       .  S
C2190      C2193   1.443       .  S
C2193      N2195   1.157       .  T
C2194      N2196   1.157   1_565  T
C2197      C2198   1.411       .  A
C2197      C2202   1.418       .  A
C2198      C2199   1.405       .  A
C2198      H2203   1.084       .  S
C2199      C2200   1.417       .  A
C2199      C2206   1.444       .  S
C2200      C2201   1.411       .  A
C2201      C2202   1.405       .  A
C2201      H2204   1.082       .  S
C2202      C2205   1.443       .  S
C2205      N2207   1.158       .  T
C2206      N2208   1.157       .  T
C2209      C2210   1.407       .  A
C2209      C2214   1.416       .  A
C2210      C2211   1.404   1_545  A
C2210      H2215   1.084       .  S
C2211      C2212   1.414       .  A
C2211      C2218   1.443       .  S
C2212      C2213   1.406       .  A
C2213      C2214   1.404   1_565  A
C2213      H2216   1.085       .  S
C2214      C2217   1.444       .  S
C2217      N2219   1.157       .  T
C2218      N2220   1.157       .  T
C2221      C2222   1.403   1_655  A
C2221      C2226   1.408       .  A
C2222      C2223   1.397       .  A
C2222      H2227   1.085   1_455  S
C2223      C2224   1.408       .  A
C2223      C2230   1.442       .  S
C2224      C2225   1.408       .  A
C2225      C2226   1.404   1_455  A
C2225      H2228   1.085       .  S
C2226      C2229   1.443       .  S
C2229      N2231   1.157       .  T
C2230      N2232   1.156       .  T
C2233      C2234   1.407       .  A
C2233      C2238   1.416       .  A
C2234      C2235   1.402       .  A
C2234      H2239   1.084       .  S
C2235      C2236   1.414       .  A
C2235      C2242   1.444       .  S
C2236      C2237   1.405       .  A
C2237      C2238   1.406       .  A
C2237      H2240   1.085       .  S
C2238      C2241   1.443       .  S
C2241      N2243   1.157   1_455  T
C2242      N2244   1.157       .  T
C2245      C2246   1.412       .  A
C2245      C2250   1.423       .  A
C2246      C2247   1.398       .  A
C2246      H2251   1.085       .  S
C2247      C2248   1.417       .  A
C2247      C2254   1.446       .  S
C2248      C2249   1.413       .  A
C2249      C2250   1.414       .  A
C2249      H2252   1.078       .  S
C2250      C2253   1.440       .  S
C2253      N2255   1.158       .  T
C2254      N2256   1.157       .  T
C2257      C2258   1.407       .  A
C2257      C2262   1.415       .  A
C2258      C2259   1.403       .  A
C2258      H2263   1.085       .  S
C2259      C2260   1.414       .  A
C2259      C2266   1.444       .  S
C2260      C2261   1.406       .  A
C2261      C2262   1.407       .  A
C2261      H2264   1.084       .  S
C2262      C2265   1.443       .  S
C2265      N2267   1.157       .  T
C2266      N2268   1.157       .  T
C2269      C2270   1.409       .  A
C2269      C2274   1.412       .  A
C2270      C2271   1.409       .  A
C2270      H2275   1.084       .  S
C2271      C2272   1.416       .  A
C2271      C2278   1.443       .  S
C2272      C2273   1.409       .  A
C2273      C2274   1.404       .  A
C2273      H2276   1.079       .  S
C2274      C2277   1.444   1_655  S
C2277      N2279   1.157       .  T
C2278      N2280   1.157       .  T
C2281      C2282   1.408       .  A
C2281      C2286   1.413       .  A
C2282      C2283   1.409       .  A
C2282      H2287   1.085       .  S
C2283      C2284   1.416       .  A
C2283      C2290   1.443       .  S
C2284      C2285   1.402       .  A
C2285      C2286   1.397       .  A
C2285      H2288   1.085   1_565  S
C2286      C2289   1.440       .  S
C2289      N2291   1.156   1_565  T
C2290      N2292   1.157       .  T
C2293      C2294   1.406       .  A
C2293      C2298   1.409       .  A
C2294      C2295   1.403       .  A
C2294      H2299   1.085       .  S
C2295      C2296   1.412       .  A
C2295      C2302   1.444       .  S
C2296      C2297   1.406       .  A
C2297      C2298   1.406       .  A
C2297      H2300   1.079       .  S
C2298      C2301   1.444       .  S
C2301      N2303   1.157       .  T
C2302      N2304   1.157       .  T
C2305      C2306   1.412       .  A
C2305      C2310   1.419       .  A
C2306      C2307   1.416       .  A
C2306      H2311   1.079       .  S
C2307      C2308   1.424       .  A
C2307      C2314   1.440       .  S
C2308      C2309   1.410       .  A
C2309      C2310   1.397       .  A
C2309      H2312   1.085       .  S
C2310      C2313   1.446       .  S
C2313      N2315   1.157       .  T
C2314      N2316   1.158       .  T
C2317      C2318   1.404       .  A
C2317      C2322   1.418       .  A
C2318      C2319   1.400       .  A
C2318      H2323   1.079       .  S
C2319      C2320   1.411       .  A
C2319      C2326   1.443       .  S
C2320      C2321   1.407       .  A
C2321      C2322   1.406       .  A
C2321      H2324   1.084       .  S
C2322      C2325   1.442       .  S
C2325      N2327   1.157       .  T
C2326      N2328   1.157       .  T
C2329      C2330   1.402       .  A
C2329      C2334   1.405       .  A
C2330      C2331   1.409   1_545  A
C2330      H2335   1.085       .  S
C2331      C2332   1.424       .  A
C2331      C2338   1.441       .  S
C2332      C2333   1.413       .  A
C2333      C2334   1.402   1_565  A
C2333      H2336   1.081       .  S
C2334      C2337   1.443       .  S
C2337      N2339   1.158       .  T
C2338      N2340   1.157       .  T
C2341      C2342   1.400       .  A
C2341      C2346   1.410       .  A
C2342      C2343   1.405       .  A
C2342      H2347   1.084       .  S
C2343      C2344   1.421       .  A
C2343      C2350   1.444       .  S
C2344      C2345   1.402       .  A
C2345      C2346   1.396       .  A
C2345      H2348   1.059       .  S
C2346      C2349   1.446       .  S
C2349      N2351   1.157       .  T
C2350      N2352   1.157       .  T
C2353      C2354   1.407       .  A
C2353      C2358   1.417       .  A
C2354      C2355   1.407       .  A
C2354      H2359   1.059       .  S
C2355      C2356   1.409       .  A
C2355      C2362   1.444       .  S
C2356      C2357   1.405       .  A
C2357      C2358   1.403       .  A
C2357      H2360   1.084       .  S
C2358      C2361   1.444       .  S
C2361      N2363   1.157       .  T
C2362      N2364   1.157       .  T
C2365      C2366   1.410       .  A
C2365      C2370   1.424       .  A
C2366      C2367   1.397       .  A
C2366      H2371   1.085       .  S
C2367      C2368   1.420       .  A
C2367      C2374   1.446       .  S
C2368      C2369   1.412       .  A
C2369      C2370   1.416       .  A
C2369      H2372   1.081       .  S
C2370      C2373   1.440       .  S
C2373      N2375   1.158       .  T
C2374      N2376   1.157       .  T
C2377      C2378   1.412       .  A
C2377      C2382   1.420       .  A
C2378      C2379   1.417       .  A
C2378      H2383   1.080       .  S
C2379      C2380   1.424       .  A
C2379      C2386   1.440       .  S
C2380      C2381   1.410       .  A
C2381      C2382   1.396       .  A
C2381      H2384   1.086       .  S
C2382      C2385   1.447       .  S
C2385      N2387   1.157       .  T
C2386      N2388   1.158       .  T
C2389      C2390   1.407       .  A
C2389      C2394   1.419       .  A
C2390      C2391   1.401       .  A
C2390      H2395   1.085       .  S
C2391      C2392   1.414       .  A
C2391      C2398   1.444       .  S
C2392      C2393   1.401       .  A
C2393      C2394   1.404       .  A
C2393      H2396   1.085       .  S
C2394      C2397   1.440       .  S
C2397      N2399   1.157       .  T
C2398      N2400   1.157       .  T
C2401      C2402   1.409       .  A
C2401      C2406   1.425       .  A
C2402      C2403   1.407       .  A
C2402      H2407   1.084       .  S
C2403      C2404   1.416       .  A
C2403      C2410   1.442       .  S
C2404      C2405   1.402       .  A
C2405      C2406   1.407       .  A
C2405      H2408   1.085       .  S
C2406      C2409   1.441       .  S
C2409      N2411   1.157       .  T
C2410      N2412   1.157       .  T
C2413      C2414   1.406   1_455  A
C2413      C2418   1.408       .  A
C2414      C2415   1.410       .  A
C2414      H2419   1.084       .  S
C2415      C2416   1.415   1_655  A
C2415      C2422   1.443       .  S
C2416      C2417   1.406       .  A
C2417      C2418   1.395       .  A
C2417      H2420   1.085       .  S
C2418      C2421   1.446       .  S
C2421      N2423   1.157       .  T
C2422      N2424   1.157       .  T
C2425      C2426   1.407       .  A
C2425      C2430   1.415       .  A
C2426      C2427   1.404       .  A
C2426      H2431   1.084       .  S
C2427      C2428   1.410       .  A
C2427      C2434   1.444       .  S
C2428      C2429   1.399       .  A
C2429      C2430   1.400       .  A
C2429      H2432   1.081       .  S
C2430      C2433   1.444       .  S
C2433      N2435   1.157   1_655  T
C2434      N2436   1.157       .  T
C2437      C2438   1.403       .  A
C2437      C2442   1.416   1_565  A
C2438      C2439   1.394       .  A
C2438      H2443   1.085       .  S
C2439      C2440   1.411       .  A
C2439      C2446   1.446       .  S
C2440      C2441   1.404   1_565  A
C2441      C2442   1.409       .  A
C2441      H2444   1.085       .  S
C2442      C2445   1.443       .  S
C2445      N2447   1.157       .  T
C2446      N2448   1.157       .  T
C2449      C2450   1.404       .  A
C2449      C2454   1.413       .  A
C2450      C2451   1.399       .  A
C2450      H2455   1.085       .  S
C2451      C2452   1.415       .  A
C2451      C2458   1.445       .  S
C2452      C2453   1.407       .  A
C2453      C2454   1.405       .  A
C2453      H2456   1.084       .  S
C2454      C2457   1.443       .  S
C2457      N2459   1.157       .  T
C2458      N2460   1.157       .  T
C2461      C2462   1.407       .  A
C2461      C2466   1.411       .  A
C2462      C2463   1.402       .  A
C2462      H2467   1.085       .  S
C2463      C2464   1.413       .  A
C2463      C2470   1.443       .  S
C2464      C2465   1.408       .  A
C2465      C2466   1.403       .  A
C2465      H2468   1.085       .  S
C2466      C2469   1.443       .  S
C2469      N2471   1.157       .  T
C2470      N2472   1.157       .  T
C2473      C2474   1.406       .  A
C2473      C2478   1.416       .  A
C2474      C2475   1.397   1_565  A
C2474      H2479   1.085   1_565  S
C2475      C2476   1.410   1_545  A
C2475      C2482   1.445       .  S
C2476      C2477   1.403       .  A
C2477      C2478   1.403       .  A
C2477      H2480   1.085       .  S
C2478      C2481   1.444       .  S
C2481      N2483   1.157       .  T
C2482      N2484   1.157       .  T
C2485      C2486   1.404       .  A
C2485      C2490   1.413       .  A
C2486      C2487   1.397       .  A
C2486      H2491   1.085       .  S
C2487      C2488   1.415       .  A
C2487      C2494   1.445       .  S
C2488      C2489   1.405       .  A
C2489      C2490   1.398       .  A
C2489      H2492   1.085       .  S
C2490      C2493   1.444       .  S
C2493      N2495   1.157       .  T
C2494      N2496   1.158       .  T
C2497      C2498   1.405       .  A
C2497      C2502   1.415       .  A
C2498      C2499   1.397       .  A
C2498      H2503   1.085       .  S
C2499      C2500   1.406       .  A
C2499      C2506   1.443       .  S
C2500      C2501   1.401       .  A
C2501      C2502   1.402       .  A
C2501      H2504   1.085       .  S
C2502      C2505   1.444   1_545  S
C2505      N2507   1.157       .  T
C2506      N2508   1.157       .  T
C2509      C2510   1.405   1_455  A
C2509      C2514   1.415       .  A
C2510      C2511   1.406       .  A
C2510      H2515   1.084       .  S
C2511      C2512   1.412   1_655  A
C2511      C2518   1.443       .  S
C2512      C2513   1.399       .  A
C2513      C2514   1.394       .  A
C2513      H2516   1.085       .  S
C2514      C2517   1.446       .  S
C2517      N2519   1.158       .  T
C2518      N2520   1.157       .  T
C2521      C2522   1.404       .  A
C2521      C2526   1.416   1_455  A
C2522      C2523   1.400       .  A
C2522      H2527   1.085       .  S
C2523      C2524   1.413       .  A
C2523      C2530   1.444       .  S
C2524      C2525   1.403   1_455  A
C2525      C2526   1.396       .  A
C2525      H2528   1.085       .  S
C2526      C2529   1.445       .  S
C2529      N2531   1.158       .  T
C2530      N2532   1.157       .  T
C2533      C2534   1.407       .  A
C2533      C2538   1.412       .  A
C2534      C2535   1.402       .  A
C2534      H2539   1.085       .  S
C2535      C2536   1.406       .  A
C2535      C2542   1.444       .  S
C2536      C2537   1.400       .  A
C2537      C2538   1.398       .  A
C2537      H2540   1.084       .  S
C2538      C2541   1.443       .  S
C2541      N2543   1.157   1_655  T
C2542      N2544   1.157       .  T
C2545      C2546   1.408       .  A
C2545      C2550   1.415       .  A
C2546      C2547   1.401       .  A
C2546      H2551   1.085       .  S
C2547      C2548   1.411       .  A
C2547      C2554   1.445       .  S
C2548      C2549   1.404       .  A
C2549      C2550   1.404       .  A
C2549      H2552   1.085       .  S
C2550      C2553   1.443       .  S
C2553      N2555   1.157       .  T
C2554      N2556   1.157       .  T
C2557      C2558   1.403       .  A
C2557      C2562   1.414       .  A
C2558      C2559   1.399       .  A
C2558      H2563   1.085       .  S
C2559      C2560   1.415       .  A
C2559      C2566   1.444       .  S
C2560      C2561   1.408       .  A
C2561      C2562   1.408       .  A
C2561      H2564   1.084       .  S
C2562      C2565   1.444       .  S
C2565      N2567   1.157       .  T
C2566      N2568   1.157       .  T
C2569      C2570   1.411       .  A
C2569      C2574   1.414       .  A
C2570      C2571   1.409       .  A
C2570      H2575   1.084       .  S
C2571      C2572   1.414       .  A
C2571      C2578   1.443       .  S
C2572      C2573   1.404       .  A
C2573      C2574   1.396       .  A
C2573      H2576   1.085       .  S
C2574      C2577   1.441       .  S
C2577      N2579   1.157       .  T
C2578      N2580   1.157       .  T
C2581      C2582   1.406       .  A
C2581      C2586   1.415       .  A
C2582      C2583   1.396       .  A
C2582      H2587   1.085       .  S
C2583      C2584   1.411       .  A
C2583      C2590   1.445       .  S
C2584      C2585   1.403       .  A
C2585      C2586   1.404       .  A
C2585      H2588   1.085       .  S
C2586      C2589   1.443       .  S
C2589      N2591   1.157       .  T
C2590      N2592   1.157       .  T
C2593      C2594   1.405       .  A
C2593      C2598   1.414       .  A
C2594      C2595   1.399       .  A
C2594      H2599   1.085       .  S
C2595      C2596   1.414       .  A
C2595      C2602   1.444       .  S
C2596      C2597   1.406       .  A
C2597      C2598   1.399       .  A
C2597      H2600   1.085       .  S
C2598      C2601   1.445       .  S
C2601      N2603   1.158       .  T
C2602      N2604   1.157       .  T
C2605      C2606   1.405       .  A
C2605      C2610   1.414       .  A
C2606      C2607   1.397       .  A
C2606      H2611   1.085       .  S
C2607      C2608   1.413       .  A
C2607      C2614   1.445       .  S
C2608      C2609   1.404       .  A
C2609      C2610   1.401       .  A
C2609      H2612   1.085       .  S
C2610      C2613   1.443       .  S
C2613      N2615   1.157       .  T
C2614      N2616   1.158       .  T
C2617      C2618   1.406       .  A
C2617      C2622   1.417       .  A
C2618      C2619   1.402       .  A
C2618      H2623   1.084       .  S
C2619      C2620   1.408       .  A
C2619      C2626   1.444       .  S
C2620      C2621   1.397       .  A
C2621      C2622   1.400       .  A
C2621      H2624   1.085       .  S
C2622      C2625   1.445       .  S
C2625      N2627   1.157       .  T
C2626      N2628   1.157       .  T
