geometry optimzed in LAMMPS
_audit_creation_date              2020-12-01 
_audit_creation_method            'lammps2cif' 
_symmetry_space_group_name_H-M    'P1' 
_symmetry_Int_Tables_number       1 
_symmetry_cell_setting            triclinic 
loop_ 
_symmetry_equiv_pos_as_xyz 
  x,y,z 
_cell_length_a                    41.10068717 
_cell_length_b                    40.95358977920959 
_cell_length_c                    43.46251026994386 
_cell_angle_alpha                 89.96179337425966 
_cell_angle_beta                  89.96658185123616 
_cell_angle_gamma                 89.67311721404214 
loop_ 
_atom_site_label 
_atom_site_type_symbol 
_atom_site_fract_x 
_atom_site_fract_y 
_atom_site_fract_z 
_atom_site_charge 
O1          O  0.07787332  0.63657717  0.22538473    -0.85600
O2          O  0.12579467  0.59008846  0.21727650    -0.82600
C3          C  0.15395443  0.57784108  0.21569333     0.97900
O4          O  0.17639908  0.58740425  0.23363100    -0.82700
O5          O  0.19381935  0.64939525  0.21510258    -0.85300
C6          C  0.18997358  0.67906969  0.20822216     1.02400
O7          O  0.16950039  0.69656460  0.22259140    -0.78100
O8          O  0.10873868  0.67418694  0.20554776    -0.78300
C9          C  0.08398176  0.65627708  0.20376230     1.02400
O10         O  0.09046087  0.63454763  0.29026397    -0.85600
O11         O  0.13202245  0.58264381  0.28236359    -0.82600
C12         C  0.15457401  0.58799119  0.30137943     0.97900
O13         O  0.17416524  0.61105296  0.29690212    -0.82700
O14         O  0.19479151  0.67165928  0.27818790    -0.85300
C15         C  0.17749887  0.69234875  0.29264176     1.02400
O16         O  0.14809261  0.69716336  0.28567982    -0.78100
O17         O  0.08550560  0.68193677  0.26789517    -0.78200
C18         C  0.07648465  0.66187893  0.28833370     1.02300
Cr19       Cr  0.10900334  0.61327055  0.25367994     1.93700
Cr20       Cr  0.18152323  0.63081091  0.25563135     1.93200
Cr21       Cr  0.12896159  0.68426317  0.24584665     1.39100
O22         O  0.14008553  0.64275298  0.25157398    -1.23300
O23         O  0.41054556  0.85586210  0.47407757    -0.85600
O24         O  0.36171467  0.89870514  0.45975654    -0.82600
C25         C  0.33367839  0.91115421  0.45826511     0.97900
O26         O  0.31188389  0.90351414  0.47762728    -0.82700
O27         O  0.29651321  0.83984017  0.46443309    -0.85300
C28         C  0.29979455  0.80949164  0.46065528     1.02400
O29         O  0.32035314  0.79398772  0.47672221    -0.78100
O30         O  0.38163754  0.81504421  0.45810087    -0.78300
C31         C  0.40552044  0.83389422  0.45444086     1.02400
O32         O  0.39778141  0.86601866  0.03788965    -0.85600
O33         O  0.35442484  0.91525004  0.02286832    -0.82600
C34         C  0.33323265  0.91135574  0.04354756     0.97900
O35         O  0.31494503  0.88679436  0.04251141    -0.82700
O36         O  0.29401633  0.82427162  0.02933141    -0.85300
C37         C  0.31088962  0.80426578  0.04495720     1.02400
O38         O  0.34060759  0.79977637  0.03924724    -0.78100
O39         O  0.40234394  0.81543838  0.02171743    -0.78200
C40         C  0.40981504  0.83771945  0.04051631     1.02300
Cr41       Cr  0.37884191  0.88154733  0.49884744     1.93700
Cr42       Cr  0.30737995  0.86267486  0.00330315     1.93200
Cr43       Cr  0.36037103  0.80932989  0.49888941     1.39100
O44         O  0.34871355  0.85106321  0.50042147    -1.23300
O45         O  0.86201393  0.59284099  0.45792290    -0.85600
O46         O  0.91078454  0.63843774  0.46755899    -0.82600
C47         C  0.90526527  0.66386510  0.45168119     0.97900
O48         O  0.88078473  0.68153994  0.45723936    -0.82700
O49         O  0.81820510  0.69625048  0.47599544    -0.85300
C50         C  0.79948070  0.67933177  0.45915601     1.02400
O51         O  0.79789866  0.64884870  0.46305835    -0.78100
O52         O  0.81474694  0.58584119  0.47996352    -0.78300
C53         C  0.83480248  0.57888411  0.45895172     1.02400
O54         O  0.86050880  0.57891363  0.02390328    -0.85600
O55         O  0.90464058  0.62746186  0.03213921    -0.82600
C56         C  0.91499061  0.65601049  0.03558761     0.97900
O57         O  0.90282143  0.67956879  0.02040148    -0.82700
O58         O  0.83966875  0.69040533  0.03927131    -0.85300
C59         C  0.80976178  0.68610965  0.04368545     1.02400
O60         O  0.79384035  0.66718203  0.02652424    -0.78100
O61         O  0.81913503  0.60681791  0.04255340    -0.78200
C62         C  0.83922114  0.58349736  0.04474639     1.02300
Cr63       Cr  0.88195042  0.61164717  0.49543806     1.93700
Cr64       Cr  0.85962791  0.68358003  0.49829150     1.93200
Cr65       Cr  0.80967744  0.62824138  0.50270766     1.39100
O66         O  0.85064070  0.64124636  0.49886444    -1.23300
O67         O  0.62841203  0.89833084  0.21372706    -0.86400
O68         O  0.57690566  0.85720737  0.22313946    -0.82600
C69         C  0.58129993  0.83503222  0.20342423     0.97900
O70         O  0.60455638  0.81504360  0.20617507    -0.82700
O71         O  0.66415493  0.79000723  0.22434549    -0.85300
C72         C  0.68434853  0.80596543  0.20841546     1.02400
O73         O  0.68926161  0.83571137  0.21404172    -0.78100
O74         O  0.67787880  0.89882456  0.23251697    -0.78300
C75         C  0.65726845  0.90844012  0.21282520     1.02400
O76         O  0.63398827  0.90825582  0.27865160    -0.85600
O77         O  0.58708063  0.86121479  0.28767443    -0.82600
C78         C  0.57286668  0.83402697  0.28718309     0.97900
O79         O  0.58154063  0.81214568  0.26833329    -0.82700
O80         O  0.64284531  0.79339837  0.28720556    -0.85300
C81         C  0.67280110  0.79553110  0.29290232     1.02400
O82         O  0.69088319  0.81411177  0.27719194    -0.78100
O83         O  0.67295872  0.87624372  0.29540273    -0.78200
C84         C  0.65532422  0.90133568  0.29854908     1.02300
Cr85       Cr  0.60885019  0.87885751  0.25085197     1.93700
Cr86       Cr  0.62436721  0.80577747  0.24681634     1.93200
Cr87       Cr  0.67955382  0.85549906  0.25456197     1.39100
O88         O  0.63759379  0.84667250  0.25084726    -1.23300
O89         O  0.08847359  0.35975613  0.04019726    -0.85600
O90         O  0.12951060  0.41121808  0.03048456    -0.82600
C91         C  0.15213419  0.40611091  0.04959766     0.97900
O92         O  0.17212907  0.38312507  0.04505738    -0.82700
O93         O  0.19489074  0.32258466  0.02711786    -0.85300
C94         C  0.17903986  0.30198911  0.04277655     1.02400
O95         O  0.14944824  0.29676914  0.03711406    -0.78100
O96         O  0.08618694  0.31031434  0.02098650    -0.78300
C97         C  0.07730983  0.33126137  0.04067773     1.02400
O98         O  0.07568262  0.35508115  0.47575952    -0.85600
O99         O  0.12283406  0.40099936  0.46536931    -0.82600
C100        C  0.15065875  0.41351139  0.46367872     0.97900
O101        O  0.17310453  0.40499694  0.48195577    -0.82700
O102        O  0.19058260  0.34282813  0.46347398    -0.85300
C103        C  0.18735768  0.31287452  0.45732206     1.02400
O104        O  0.16825437  0.29546310  0.47315978    -0.78100
O105        O  0.10600236  0.31546136  0.45763613    -0.78200
C106        C  0.08106328  0.33340583  0.45569287     1.02300
Cr107      Cr  0.10667762  0.37942288  0.50280330     1.93700
Cr108      Cr  0.17942983  0.36235899  0.50416786     1.93200
Cr109      Cr  0.12836014  0.30786543  0.49749122     1.39100
O110        O  0.13825061  0.34985356  0.50142585    -1.23300
O111        O  0.36336576  0.09193059  0.21143449    -0.85600
O112        O  0.41437916  0.13327217  0.22308648    -0.82600
C113        C  0.40987415  0.15543464  0.20339415     0.97900
O114        O  0.38666658  0.17537823  0.20675070    -0.82700
O115        O  0.32611716  0.19860425  0.22267938    -0.85300
C116        C  0.30532657  0.18259127  0.20751226     1.02400
O117        O  0.29940483  0.15318979  0.21390573    -0.78100
O118        O  0.31352754  0.08968574  0.22939268    -0.78300
C119        C  0.33481072  0.08114515  0.20988701     1.02400
O120        O  0.35737049  0.07892465  0.27597631    -0.85600
O121        O  0.40216243  0.12677219  0.28720038    -0.82600
C122        C  0.41473126  0.15461545  0.28908883     0.97900
O123        O  0.40672444  0.17721365  0.27063938    -0.82700
O124        O  0.34432084  0.19534480  0.28693319    -0.85300
C125        C  0.31471070  0.19095130  0.29338200     1.02400
O126        O  0.29765272  0.17118576  0.27802571    -0.78100
O127        O  0.31740724  0.10918671  0.29326800    -0.78200
C128        C  0.33583580  0.08468275  0.29597132     1.02300
Cr129      Cr  0.38186688  0.11027907  0.24944776     1.93700
Cr130      Cr  0.36489522  0.18331225  0.24700883     1.93200
Cr131      Cr  0.31040566  0.13170830  0.25339424     1.39100
O132        O  0.35228519  0.14192926  0.25002467    -1.23300
O133        O  0.58104100  0.12746441  0.47474234    -0.85600
O134        O  0.63118262  0.08448956  0.46318347    -0.82600
C135        C  0.65945781  0.07262140  0.46178505     0.97900
O136        O  0.68126516  0.08125409  0.48061984    -0.82700
O137        O  0.69695603  0.14348620  0.46250269    -0.85300
C138        C  0.69112592  0.17259798  0.45458372     1.02400
O139        O  0.67066620  0.18975610  0.46931515    -0.78100
O140        O  0.60980215  0.16703461  0.45560961    -0.78300
C141        C  0.58566056  0.14830913  0.45397866     1.02400
O142        O  0.59446357  0.12312716  0.03859614    -0.85600
O143        O  0.63854663  0.07310734  0.02749007    -0.82600
C144        C  0.66050229  0.07844168  0.04709413     0.97900
O145        O  0.67879765  0.10283561  0.04391727    -0.82700
O146        O  0.69948844  0.16421540  0.02601006    -0.85300
C147        C  0.68317147  0.18590771  0.04003690     1.02400
O148        O  0.65353335  0.19074976  0.03376529    -0.78100
O149        O  0.59043027  0.17274317  0.01945937    -0.78200
C150        C  0.58180504  0.15124347  0.03880009     1.02300
Cr151      Cr  0.61386042  0.10454323  0.50096568     1.93700
Cr152      Cr  0.68577686  0.12397233  0.00308545     1.93200
Cr153      Cr  0.63210552  0.17673578  0.99499063     1.39100
O154        O  0.64406853  0.13528646  0.99988683    -1.23300
O155        O  0.85463442  0.41142264  0.27655553    -0.85600
O156        O  0.89647798  0.36054411  0.29186431    -0.82600
C157        C  0.90860856  0.33221345  0.29316294     0.97900
O158        O  0.90155343  0.31100977  0.27298762    -0.82700
O159        O  0.83795757  0.29388648  0.28393776    -0.85300
C160        C  0.80815817  0.29924005  0.28884550     1.02400
O161        O  0.79284264  0.32125265  0.27419576    -0.78100
O162        O  0.81378045  0.38229697  0.29220719    -0.78300
C163        C  0.83239627  0.40635448  0.29584178     1.02400
O164        O  0.86658709  0.39886795  0.21365056    -0.85600
O165        O  0.91479356  0.35468257  0.22911764    -0.82600
C166        C  0.91041520  0.33453198  0.20766798     0.97900
O167        O  0.88560795  0.31675500  0.20793222    -0.82700
O168        O  0.82421169  0.29441986  0.21917827    -0.85300
C169        C  0.80440070  0.31152245  0.20369525     1.02400
O170        O  0.79895204  0.34097359  0.21061511    -0.78100
O171        O  0.81544859  0.40330074  0.22808461    -0.78200
C172        C  0.83881617  0.41169518  0.21068436     1.02300
Cr173      Cr  0.88063949  0.37894813  0.25266538     1.93700
Cr174      Cr  0.86147701  0.30729143  0.24629468     1.93200
Cr175      Cr  0.80845348  0.36098747  0.25125185     1.39100
O176        O  0.84993578  0.34886682  0.25018594    -1.23300
C177        C  0.69956818  0.20627742  0.06365411     0.01100
C178        C  0.71322075  0.19157170  0.09011225     0.03900
C179        C  0.72983790  0.21061511  0.11196633    -0.12100
C180        C  0.73350351  0.24444396  0.10740838     0.23200
C181        C  0.72016458  0.25923600  0.08091329    -0.12700
C182        C  0.70288063  0.24029989  0.05929202     0.04600
C183        C  0.75147842  0.26409806  0.13069418     0.27100
C184        C  0.73477195  0.27771687  0.15600324    -0.13400
C185        C  0.75211400  0.29335135  0.17973353     0.05200
C186        C  0.78626208  0.29619411  0.17799639    -0.09400
C187        C  0.80292499  0.28307500  0.15233577     0.06000
C188        C  0.78560968  0.26681947  0.12894322    -0.13700
Br189      Br  0.72642963  0.30529020  0.07398625    -0.05800
Br190      Br  0.70849674  0.14540922  0.09718639    -0.00200
Br191      Br  0.72933865  0.30850174  0.21589911     0.00300
Br192      Br  0.80864188  0.24711358  0.09491755    -0.04100
Br193      Br  0.68491065  0.26079892  0.02304722     0.00400
Br194      Br  0.74792356  0.19043264  0.14834924    -0.03400
Br195      Br  0.68813838  0.27370708  0.15865150    -0.04300
Br196      Br  0.84942411  0.28762448  0.14880367    -0.00300
C197        C  0.70891147  0.18731808  0.42812225     0.01100
C198        C  0.74328348  0.18852554  0.42800154     0.03900
C199        C  0.75990919  0.20407355  0.40364531    -0.12100
C200        C  0.74233904  0.21959309  0.37986722     0.23200
C201        C  0.70817580  0.21768837  0.37948660    -0.12700
C202        C  0.69157690  0.20112138  0.40313049     0.04600
C203        C  0.75946960  0.23974115  0.35635781     0.27100
C204        C  0.76561556  0.27296404  0.36239305    -0.13400
C205        C  0.78129001  0.29247165  0.34023856     0.05200
C206        C  0.79074850  0.27898340  0.31175266    -0.09400
C207        C  0.78376080  0.24597635  0.30532075     0.06000
C208        C  0.76830279  0.22635698  0.32762782    -0.13700
Br209      Br  0.68415486  0.23850243  0.34663589    -0.05800
Br210      Br  0.76767506  0.17088823  0.46215554    -0.00200
Br211      Br  0.79003482  0.33765055  0.34914114     0.00300
Br212      Br  0.75855055  0.18132860  0.31877149    -0.04100
Br213      Br  0.64516923  0.19629147  0.40006180     0.00400
Br214      Br  0.80681712  0.20452311  0.40278775    -0.03400
Br215      Br  0.75180811  0.29187331  0.40093336    -0.04300
Br216      Br  0.79386167  0.22818562  0.26531869    -0.00300
C217        C  0.43275059  0.15808235  0.17692902     0.01100
C218        C  0.44258347  0.12965898  0.16071239     0.03900
C219        C  0.46617940  0.13160032  0.13731958    -0.12100
C220        C  0.47958205  0.16194825  0.12919744     0.23200
C221        C  0.46917175  0.19047152  0.14449444    -0.12700
C222        C  0.44630868  0.18854084  0.16866186     0.04600
C223        C  0.50581611  0.16329389  0.10560889     0.27100
C224        C  0.53870091  0.16279105  0.11488053    -0.13400
C225        C  0.56362684  0.16073671  0.09274277     0.05200
C226        C  0.55583381  0.15842933  0.06130663    -0.09400
C227        C  0.52301122  0.16015021  0.05186355     0.06000
C228        C  0.49804108  0.16274603  0.07400685    -0.13700
Br229      Br  0.48692863  0.23208421  0.13254755    -0.05800
Br230      Br  0.42363317  0.08767589  0.16955634    -0.00200
Br231      Br  0.60865978  0.16136132  0.10524031     0.00300
Br232      Br  0.45306563  0.16428839  0.06130534    -0.04100
Br233      Br  0.43607829  0.22734159  0.19201771     0.00400
Br234      Br  0.48096583  0.09238735  0.11673826    -0.03400
Br235      Br  0.54951664  0.16341405  0.15803652    -0.04300
Br236      Br  0.51211401  0.15722960  0.00876626    -0.00300
C237        C  0.44006265  0.15990594  0.31242609     0.01100
C238        C  0.43125261  0.16301186  0.34360387     0.03900
C239        C  0.45530128  0.16217406  0.36657815    -0.12100
C240        C  0.48831321  0.15902515  0.35830772     0.23200
C241        C  0.49724838  0.15726716  0.32704585    -0.12700
C242        C  0.47312636  0.15773862  0.30410184     0.04600
C243        C  0.51359511  0.15646421  0.38248088     0.27100
C244        C  0.52657556  0.18484889  0.39580318    -0.13400
C245        C  0.55005275  0.18233912  0.41927036     0.05200
C246        C  0.56184673  0.15132936  0.42847868    -0.09400
C247        C  0.54935399  0.12289634  0.41424577     0.06000
C248        C  0.52470081  0.12552689  0.39196258    -0.13700
Br249      Br  0.54250402  0.15272326  0.31593404    -0.05800
Br250      Br  0.38620714  0.16856492  0.35471988    -0.00200
Br251      Br  0.56388424  0.22152505  0.44007998     0.00300
Br252      Br  0.50556010  0.08668592  0.37456392    -0.04100
Br253      Br  0.48524071  0.15415650  0.26135082     0.00400
Br254      Br  0.44304171  0.16372308  0.40942929    -0.03400
Br255      Br  0.51175963  0.22712830  0.38186256    -0.04300
Br256      Br  0.56668640  0.08014334  0.42373193    -0.00300
C257        C  0.05257551  0.32329716  0.06378406     0.01100
C258        C  0.01937939  0.32491674  0.05587026     0.03900
C259        C  0.99560506  0.32450081  0.07913056    -0.12100
C260        C  0.00507559  0.32137098  0.11014439     0.23200
C261        C  0.03816896  0.31765075  0.11783092    -0.12700
C262        C  0.06193894  0.31873303  0.09463720     0.04600
C263        C  0.98060765  0.32460120  0.13489759     0.27100
C264        C  0.97320793  0.35574320  0.14667850    -0.13400
C265        C  0.94981284  0.35924687  0.17004041     0.05200
C266        C  0.93495247  0.33123379  0.18291033    -0.09400
C267        C  0.94396997  0.29987617  0.17213173     0.06000
C268        C  0.96581915  0.29672586  0.14741509    -0.13700
Br269      Br  0.05085383  0.31320106  0.16037311    -0.05800
Br270      Br  0.00664406  0.32920552  0.01332216    -0.00200
Br271      Br  0.93804496  0.40281603  0.18318520     0.00300
Br272      Br  0.97590420  0.25421030  0.13078483    -0.04100
Br273      Br  0.10740199  0.31467262  0.10505609     0.00400
Br274      Br  0.95028547  0.33053615  0.06888541    -0.03400
Br275      Br  0.99587933  0.39352329  0.13101511    -0.04300
Br276      Br  0.92922075  0.26097431  0.19296355    -0.00300
C277        C  0.93256313  0.32455853  0.31758756     0.01100
C278        C  0.92443088  0.32986222  0.34875380     0.03900
C279        C  0.94820704  0.32609612  0.37179272    -0.12100
C280        C  0.98039409  0.31772349  0.36375913     0.23200
C281        C  0.98823898  0.31089831  0.33287169    -0.12700
C282        C  0.96438497  0.31418884  0.30979197     0.04600
C283        C  0.00677939  0.32092756  0.38687786     0.27100
C284        C  0.02017431  0.35194556  0.39225047    -0.13400
C285        C  0.04505815  0.35582976  0.41406774     0.05200
C286        C  0.05690636  0.32859320  0.43075973    -0.09400
C287        C  0.04368790  0.29734386  0.42502694     0.06000
C288        C  0.01856177  0.29360832  0.40321488    -0.13700
Br289      Br  0.03233559  0.29902227  0.32216699    -0.05800
Br290      Br  0.88078672  0.34272243  0.35998609    -0.00200
Br291      Br  0.06320698  0.39869245  0.42006710     0.00300
Br292      Br  0.99945298  0.25135902  0.39622330    -0.04100
Br293      Br  0.97643108  0.30746907  0.26730976     0.00400
Br294      Br  0.93724760  0.33379633  0.41436435    -0.03400
Br295      Br  0.00395502  0.38933964  0.36967025    -0.04300
Br296      Br  0.05832724  0.25983591  0.44824743    -0.00300
C297        C  0.19585909  0.28311895  0.06727454     0.01100
C298        C  0.21419786  0.29944498  0.09000146     0.03900
C299        C  0.23237520  0.28152681  0.11166621    -0.12100
C300        C  0.23132383  0.24718653  0.11170568     0.23200
C301        C  0.21167140  0.23078560  0.09018330    -0.12700
C302        C  0.19429870  0.24863863  0.06775703     0.04600
C303        C  0.25002057  0.22872595  0.13532622     0.27100
C304        C  0.28360255  0.22296353  0.13131203    -0.13400
C305        C  0.30197650  0.20854962  0.15513540     0.05200
C306        C  0.28660549  0.19885625  0.18272330    -0.09400
C307        C  0.25294489  0.20437977  0.18652325     0.06000
C308        C  0.23474023  0.21935120  0.16293812    -0.13700
Br309      Br  0.20836388  0.18385494  0.09174822    -0.05800
Br310      Br  0.21253240  0.34630913  0.09353182    -0.00200
Br311      Br  0.34815067  0.20240269  0.14974653     0.00300
Br312      Br  0.18890377  0.22786230  0.16857146    -0.04100
Br313      Br  0.16931045  0.22554324  0.03717603     0.00400
Br314      Br  0.25848601  0.30400665  0.14184760    -0.03400
Br315      Br  0.30432431  0.23506027  0.09310961    -0.04300
Br316      Br  0.23214503  0.19336448  0.22490970    -0.00300
C317        C  0.20688478  0.29737798  0.43214219     0.01100
C318        C  0.24088394  0.30240462  0.43016234     0.03900
C319        C  0.25952464  0.28624329  0.40741381    -0.12100
C320        C  0.24464131  0.26437201  0.38681626     0.23200
C321        C  0.21082259  0.25917971  0.38873901    -0.12700
C322        C  0.19193831  0.27609147  0.41076541     0.04600
C323        C  0.26455374  0.24617012  0.36359867     0.27100
C324        C  0.27374692  0.26118868  0.33568993    -0.13400
C325        C  0.29147182  0.24345202  0.31338408     0.05200
C326        C  0.29903580  0.21023289  0.31826184    -0.09400
C327        C  0.29006650  0.19527796  0.34628615     0.06000
C328        C  0.27370624  0.21345343  0.36917206    -0.13700
Br329      Br  0.19049009  0.22810230  0.36150187    -0.05800
Br330      Br  0.26269557  0.32969042  0.45976941    -0.00200
Br331      Br  0.30450576  0.26427918  0.27553248     0.00300
Br332      Br  0.26401419  0.19375240  0.40846280    -0.04100
Br333      Br  0.14530702  0.27110662  0.41013741     0.00400
Br334      Br  0.30586987  0.29302405  0.40499383    -0.03400
Br335      Br  0.26148156  0.30591433  0.32778530    -0.04300
Br336      Br  0.29995628  0.14986675  0.35354188    -0.00300
C337        C  0.66655453  0.93194742  0.18859984     0.01100
C338        C  0.66395057  0.92276519  0.15744948     0.03900
C339        C  0.66727979  0.94633641  0.13409121    -0.12100
C340        C  0.67434294  0.97899545  0.14173658     0.23200
C341        C  0.68002562  0.98746369  0.17272017    -0.12700
C342        C  0.67562202  0.96411481  0.19620250     0.04600
C343        C  0.67156295  0.00504231  0.11792339     0.27100
C344        C  0.69917822  0.01679804  0.10232199    -0.13400
C345        C  0.69595423  0.04175920  0.08003531     0.05200
C346        C  0.66486171  0.05480192  0.07289753    -0.09400
C347        C  0.63727237  0.04287449  0.08882279     0.06000
C348        C  0.64066548  0.01812583  0.11108054    -0.13700
Br349      Br  0.69253303  0.03147134  0.18290064    -0.05800
Br350      Br  0.65617966  0.87765759  0.14690147    -0.00200
Br351      Br  0.73407267  0.05636163  0.05816340     0.00300
Br352      Br  0.60269471  0.00138584  0.13199753    -0.04100
Br353      Br  0.67952156  0.97687981  0.23877207     0.00400
Br354      Br  0.66059849  0.93431904  0.09168840    -0.03400
Br355      Br  0.74117213  0.99756739  0.11076525    -0.04300
Br356      Br  0.59443425  0.06073192  0.08124277    -0.00300
C357        C  0.66008703  0.92401385  0.32467963     0.01100
C358        C  0.69146205  0.93573217  0.33197018     0.03900
C359        C  0.69527568  0.95959773  0.35501379    -0.12100
C360        C  0.66779447  0.97243265  0.37018843     0.23200
C361        C  0.63653654  0.96119007  0.36271311    -0.12700
C362        C  0.63270829  0.93649837  0.34066837     0.04600
C363        C  0.67112689  0.99840855  0.39360692     0.27100
C364        C  0.67274907  0.99007375  0.42502943    -0.13400
C365        C  0.67030125  0.01461189  0.44755160     0.05200
C366        C  0.66647347  0.04748171  0.43857768    -0.09400
C367        C  0.66647190  0.05593200  0.40715904     0.06000
C368        C  0.66871390  0.03139358  0.38467080    -0.13700
Br369      Br  0.59874519  0.98095089  0.38181794    -0.05800
Br370      Br  0.72904493  0.92137531  0.30889018    -0.00200
Br371      Br  0.66954337  0.00296309  0.49059259     0.00300
Br372      Br  0.66659236  0.04259520  0.34158388    -0.04100
Br373      Br  0.58969552  0.91949682  0.33350727     0.00400
Br374      Br  0.73787323  0.97598107  0.36501166    -0.03400
Br375      Br  0.67645481  0.94483324  0.43702165    -0.04300
Br376      Br  0.66285859  0.10113270  0.39501474    -0.00300
C377        C  0.83699064  0.56058323  0.07127569     0.01100
C378        C  0.86442023  0.55435724  0.09009839     0.03900
C379        C  0.86230593  0.53227969  0.11488156    -0.12100
C380        C  0.83302935  0.51574057  0.12077858     0.23200
C381        C  0.80542333  0.52235921  0.10262038    -0.12700
C382        C  0.80729999  0.54474709  0.07801068     0.04600
C383        C  0.83238720  0.48889482  0.14384660     0.27100
C384        C  0.84206693  0.45724675  0.13487506    -0.13400
C385        C  0.84293262  0.43174094  0.15653709     0.05200
C386        C  0.83436092  0.43776015  0.18746205    -0.09400
C387        C  0.82399079  0.46933532  0.19637435     0.06000
C388        C  0.82286498  0.49481729  0.17452492    -0.13700
Br389      Br  0.76538262  0.49965208  0.11107037    -0.05800
Br390      Br  0.90507654  0.57611964  0.08269688    -0.00200
Br391      Br  0.85510482  0.38826039  0.14354583     0.00300
Br392      Br  0.80896132  0.53800780  0.18660735    -0.04100
Br393      Br  0.76961927  0.55168417  0.05230988     0.00400
Br394      Br  0.89973439  0.52406346  0.14068010    -0.03400
Br395      Br  0.85453274  0.44907038  0.09273749    -0.04300
Br396      Br  0.81341199  0.47834333  0.23885928    -0.00300
C397        C  0.82686452  0.55346567  0.43614487     0.01100
C398        C  0.82267590  0.56204186  0.40503410     0.03900
C399        C  0.82047884  0.53762045  0.38244093    -0.12100
C400        C  0.81994125  0.50451429  0.39119962     0.23200
C401        C  0.82067907  0.49602573  0.42261403    -0.12700
C402        C  0.82479223  0.52042192  0.44507553     0.04600
C403        C  0.82237437  0.47861824  0.36746534     0.27100
C404        C  0.79433246  0.46537170  0.35386191    -0.13400
C405        C  0.79721854  0.44082026  0.33121636     0.05200
C406        C  0.82841015  0.42967950  0.32185936    -0.09400
C407        C  0.85646389  0.44306155  0.33602661     0.06000
C408        C  0.85332685  0.46739070  0.35858599    -0.13700
Br409      Br  0.81744523  0.45076441  0.43448796    -0.05800
Br410      Br  0.81799694  0.60720343  0.39371424    -0.00200
Br411      Br  0.75824095  0.42438971  0.31205672     0.00300
Br412      Br  0.89168837  0.48616326  0.37714432    -0.04100
Br413      Br  0.82918055  0.50836604  0.48778474     0.00400
Br414      Br  0.82013358  0.54936626  0.33944830    -0.03400
Br415      Br  0.75212072  0.48189258  0.36579310    -0.04300
Br416      Br  0.89983411  0.42821618  0.32561382    -0.00300
C417        C  0.68726197  0.77578952  0.31780378     0.01100
C418        C  0.68198807  0.78463623  0.34873040     0.03900
C419        C  0.69793568  0.76743944  0.37246497    -0.12100
C420        C  0.71924796  0.74141860  0.36529353     0.23200
C421        C  0.72320466  0.73156858  0.33444010    -0.12700
C422        C  0.70740976  0.74886818  0.31070211     0.04600
C423        C  0.73921772  0.72584147  0.38984148     0.27100
C424        C  0.77022150  0.73830820  0.39660668    -0.13400
C425        C  0.79006453  0.72304943  0.41885593     0.05200
C426        C  0.77855423  0.69556111  0.43543540    -0.09400
C427        C  0.74677532  0.68379080  0.42909476     0.06000
C428        C  0.72762067  0.69848921  0.40592902    -0.13700
Br429      Br  0.75051560  0.69446577  0.32488133    -0.05800
Br430      Br  0.65419486  0.82140856  0.35833750    -0.00200
Br431      Br  0.83353820  0.73957218  0.42488655     0.00300
Br432      Br  0.68534975  0.68119346  0.39579925    -0.04100
Br433      Br  0.71327560  0.73571978  0.26842275     0.00400
Br434      Br  0.69113533  0.77978350  0.41478809    -0.03400
Br435      Br  0.78548682  0.77646538  0.37490163    -0.04300
Br436      Br  0.72784588  0.64893892  0.45306310    -0.00300
C437        C  0.79270199  0.70449495  0.06798368     0.01100
C438        C  0.77613350  0.73368261  0.06057081     0.03900
C439        C  0.75906582  0.75091751  0.08351035    -0.12100
C440        C  0.75811121  0.73874253  0.11381538     0.23200
C441        C  0.77487195  0.70966467  0.12128497    -0.12700
C442        C  0.79216408  0.69255229  0.09837439     0.04600
C443        C  0.73913979  0.75632489  0.13774892     0.27100
C444        C  0.75473000  0.77849498  0.15748160    -0.13400
C445        C  0.73697547  0.79450778  0.18076825     0.05200
C446        C  0.70311305  0.78921281  0.18379611    -0.09400
C447        C  0.68745438  0.76734529  0.16344866     0.06000
C448        C  0.70553443  0.75074394  0.14076445    -0.13700
Br449      Br  0.77391772  0.69335275  0.16292752    -0.05800
Br450      Br  0.77666733  0.74995170  0.01890973    -0.00200
Br451      Br  0.75995738  0.82185818  0.20960559     0.00300
Br452      Br  0.68435079  0.72021344  0.11359460    -0.04100
Br453      Br  0.81448740  0.65236731  0.10836883     0.00400
Br454      Br  0.73706854  0.79134178  0.07363839    -0.03400
Br455      Br  0.80059943  0.78677419  0.15239484    -0.04300
Br456      Br  0.64100549  0.76075078  0.16529533    -0.00300
C457        C  0.32685123  0.05755697  0.18546247     0.01100
C458        C  0.32442855  0.06822753  0.15472282     0.03900
C459        C  0.32196671  0.04533164  0.13070828    -0.12100
C460        C  0.32204201  0.01165854  0.13741911     0.23200
C461        C  0.32289394  0.00106356  0.16829909    -0.12700
C462        C  0.32492238  0.02401358  0.19231911     0.04600
C463        C  0.32429039  0.98724198  0.11221489     0.27100
C464        C  0.29617980  0.97227523  0.10048176    -0.13400
C465        C  0.29884018  0.94721333  0.07832074     0.05200
C466        C  0.32992740  0.93673226  0.06797164    -0.09400
C467        C  0.35806204  0.95238064  0.07967302     0.06000
C468        C  0.35509784  0.97791692  0.10112495    -0.13700
Br469      Br  0.32328822  0.95495413  0.17744914    -0.05800
Br470      Br  0.32457714  0.11429630  0.14566403    -0.00200
Br471      Br  0.25959476  0.92897830  0.06122877     0.00300
Br472      Br  0.39332398  0.00085562  0.11514522    -0.04100
Br473      Br  0.32657648  0.00950124  0.23453451     0.00400
Br474      Br  0.32006827  0.05990296  0.08854399    -0.03400
Br475      Br  0.25400615  0.98713336  0.11427276    -0.04300
Br476      Br  0.40138795  0.93840854  0.06804506    -0.00300
C477        C  0.32727110  0.93652737  0.43495123     0.01100
C478        C  0.32038523  0.96884251  0.44424864     0.03900
C479        C  0.31882724  0.99397342  0.42220784    -0.12100
C480        C  0.32334858  0.98673391  0.39080456     0.23200
C481        C  0.32878242  0.95425734  0.38138499    -0.12700
C482        C  0.33109799  0.92925907  0.40345337     0.04600
C483        C  0.32549216  0.01347717  0.36794681     0.27100
C484        C  0.29863823  0.02153266  0.34926544    -0.13400
C485        C  0.30168111  0.04555250  0.32623764     0.05200
C486        C  0.33167698  0.06155784  0.32183872    -0.09400
C487        C  0.35834706  0.05372006  0.34107055     0.06000
C488        C  0.35521799  0.02979954  0.36401773    -0.13700
Br489      Br  0.33441355  0.94434812  0.33826265    -0.05800
Br490      Br  0.31555459  0.97926307  0.48733319    -0.00200
Br491      Br  0.26540715  0.05464271  0.29933796     0.00300
Br492      Br  0.39203560  0.01860050  0.38972808    -0.04100
Br493      Br  0.33975873  0.88508129  0.39049346     0.00400
Br494      Br  0.31254329  0.03866765  0.43505252    -0.03400
Br495      Br  0.25814413  0.99865561  0.35467097    -0.04300
Br496      Br  0.39941040  0.07562136  0.33675098    -0.00300
C497        C  0.43371880  0.83125779  0.06510939     0.01100
C498        C  0.42646273  0.84009537  0.09575913     0.03900
C499        C  0.45031343  0.83689376  0.11869869    -0.12100
C500        C  0.48185092  0.82639165  0.11075150     0.23200
C501        C  0.48879209  0.81617537  0.08059544    -0.12700
C502        C  0.46443719  0.81749203  0.05798069     0.04600
C503        C  0.50821237  0.82793108  0.13369124     0.27100
C504        C  0.52536200  0.85725319  0.13747629    -0.13400
C505        C  0.54964142  0.85948219  0.16001612     0.05200
C506        C  0.55767239  0.83191675  0.17813885    -0.09400
C507        C  0.54083511  0.80229376  0.17379390     0.06000
C508        C  0.51593543  0.80044553  0.15171053    -0.13700
Br509      Br  0.53220092  0.80165092  0.07020876    -0.05800
Br510      Br  0.38359253  0.85554933  0.10679443    -0.00200
Br511      Br  0.57143291  0.90063578  0.16575440     0.00300
Br512      Br  0.49156585  0.76070210  0.14651135    -0.04100
Br513      Br  0.47390890  0.80101000  0.01740467     0.00400
Br514      Br  0.44008387  0.84685450  0.16104507    -0.03400
Br515      Br  0.51538266  0.89441981  0.11163510    -0.04300
Br516      Br  0.54981176  0.76493729  0.19959878    -0.00300
C517        C  0.54477226  0.82851720  0.30768120     0.01100
C518        C  0.51959520  0.85208015  0.30900561     0.03900
C519        C  0.49488805  0.84929171  0.33113140    -0.12100
C520        C  0.49450439  0.82231215  0.35118542     0.23200
C521        C  0.51778076  0.79720637  0.34801831    -0.12700
C522        C  0.54311142  0.80035709  0.32643055     0.04600
C523        C  0.47227806  0.82276724  0.37795525     0.27100
C524        C  0.48275345  0.83766274  0.40522496    -0.13400
C525        C  0.46103117  0.84217393  0.42985213     0.05200
C526        C  0.42854995  0.83010108  0.42793541    -0.09400
C527        C  0.41829397  0.81528074  0.40000215     0.06000
C528        C  0.44023662  0.81146789  0.37533120    -0.13700
Br529      Br  0.51558064  0.75938608  0.37441809    -0.05800
Br530      Br  0.51801669  0.88758678  0.27974640    -0.00200
Br531      Br  0.47708898  0.86673204  0.46474479     0.00300
Br532      Br  0.42648191  0.79146729  0.33730650    -0.04100
Br533      Br  0.57635627  0.76698606  0.32420271     0.00400
Br534      Br  0.46236177  0.88325411  0.33515200    -0.03400
Br535      Br  0.52732700  0.85254029  0.40825796    -0.04300
Br536      Br  0.37354807  0.80322446  0.39314664    -0.00300
C537        C  0.15552367  0.42802636  0.07686967     0.01100
C538        C  0.12847178  0.43460496  0.09618899     0.03900
C539        C  0.13121672  0.45673425  0.12089656    -0.12100
C540        C  0.16079020  0.47288106  0.12643953     0.23200
C541        C  0.18804813  0.46575370  0.10790121    -0.12700
C542        C  0.18544904  0.44359439  0.08313124     0.04600
C543        C  0.16196768  0.50006195  0.14929448     0.27100
C544        C  0.15267283  0.53176683  0.14007460    -0.13400
C545        C  0.15206234  0.55750902  0.16151468     0.05200
C546        C  0.15994884  0.55168794  0.19265507    -0.09400
C547        C  0.17028694  0.52014214  0.20174974     0.06000
C548        C  0.17134519  0.49441579  0.18007961    -0.13700
Br549      Br  0.22862364  0.48755837  0.11594690    -0.05800
Br550      Br  0.08723873  0.41367471  0.08928320    -0.00200
Br551      Br  0.14134126  0.60117058  0.14791062     0.00300
Br552      Br  0.18450177  0.45114108  0.19264234    -0.04100
Br553      Br  0.22219309  0.43724585  0.05610451     0.00400
Br554      Br  0.09411264  0.46585584  0.14689591    -0.03400
Br555      Br  0.13975394  0.53962550  0.09801676    -0.04300
Br556      Br  0.18116759  0.51154364  0.24414406    -0.00300
C557        C  0.15649435  0.43917400  0.44068866     0.01100
C558        C  0.16009649  0.47184881  0.45008191     0.03900
C559        C  0.16266366  0.49675280  0.42791762    -0.12100
C560        C  0.16075300  0.48912146  0.39629237     0.23200
C561        C  0.15765188  0.45626401  0.38697278    -0.12700
C562        C  0.15623504  0.43129010  0.40917022     0.04600
C563        C  0.16024741  0.51579706  0.37306050     0.27100
C564        C  0.13203627  0.53512325  0.36960037    -0.13400
C565        C  0.13143587  0.56067586  0.34802194     0.05200
C566        C  0.15816846  0.56584601  0.32823159    -0.09400
C567        C  0.18683972  0.54719409  0.33239079     0.06000
C568        C  0.18788570  0.52229292  0.35483482    -0.13700
Br569      Br  0.15387560  0.44552831  0.34390728    -0.05800
Br570      Br  0.15970609  0.48264037  0.49332092    -0.00200
Br571      Br  0.09484281  0.59012490  0.34758449     0.00300
Br572      Br  0.22684782  0.49639951  0.36016487    -0.04100
Br573      Br  0.15472186  0.38608389  0.39661126     0.00400
Br574      Br  0.16766345  0.54152319  0.44088318    -0.03400
Br575      Br  0.09365339  0.52586305  0.39377267    -0.04300
Br576      Br  0.22448514  0.55506600  0.30700381    -0.00300
C577        C  0.06133802  0.65871268  0.17697745     0.01100
C578        C  0.04517103  0.63055003  0.16593105     0.03900
C579        C  0.02219313  0.63318780  0.14202433    -0.12100
C580        C  0.01729335  0.66323776  0.12673286     0.23200
C581        C  0.03477093  0.69092436  0.13643389    -0.12700
C582        C  0.05496366  0.68918600  0.16263362     0.04600
C583        C  0.99279064  0.66552645  0.10139418     0.27100
C584        C  0.99786934  0.64822958  0.07371116    -0.13400
C585        C  0.97222824  0.64457935  0.05254191     0.05200
C586        C  0.94239604  0.66123803  0.05715443    -0.09400
C587        C  0.93810637  0.68051107  0.08372650     0.06000
C588        C  0.96284695  0.68194524  0.10616559    -0.13700
Br589      Br  0.03135607  0.73125554  0.11359796    -0.05800
Br590      Br  0.05456492  0.58763293  0.18242002    -0.00200
Br591      Br  0.97765521  0.61501896  0.01824014     0.00300
Br592      Br  0.95472652  0.70475172  0.14430082    -0.04100
Br593      Br  0.07018573  0.72942984  0.18065699     0.00400
Br594      Br  0.99668666  0.59545084  0.13078303    -0.03400
Br595      Br  0.03985622  0.62875832  0.06517618    -0.04300
Br596      Br  0.89708698  0.70229112  0.09096581    -0.00300
C597        C  0.04852892  0.66889205  0.30924465     0.01100
C598        C  0.02760363  0.64303011  0.31760574     0.03900
C599        C  0.00498232  0.64706216  0.34153351    -0.12100
C600        C  0.00069811  0.67779659  0.35553451     0.23200
C601        C  0.01898951  0.70464754  0.34503574    -0.12700
C602        C  0.04308314  0.70025628  0.32211932     0.04600
C603        C  0.97586344  0.68139606  0.38034691     0.27100
C604        C  0.94252731  0.68054085  0.37283893    -0.13400
C605        C  0.91912341  0.67532908  0.39603484     0.05200
C606        C  0.92870470  0.67338602  0.42715887    -0.09400
C607        C  0.96144739  0.67972558  0.43479302     0.06000
C608        C  0.98523381  0.68199573  0.41152819    -0.13700
Br609      Br  0.01081367  0.74738863  0.36210955    -0.05800
Br610      Br  0.02718692  0.60273690  0.29430885    -0.00200
Br611      Br  0.87443675  0.66938239  0.38469871     0.00300
Br612      Br  0.03065348  0.68444766  0.42243327    -0.04100
Br613      Br  0.06804206  0.73742761  0.30868356     0.00400
Br614      Br  0.98014013  0.60998221  0.35556305    -0.03400
Br615      Br  0.92935528  0.68560977  0.33048505    -0.04300
Br616      Br  0.97315933  0.68859509  0.47680486    -0.00300
C617        C  0.29524006  0.78441724  0.06907949     0.01100
C618        C  0.28642741  0.79850799  0.09746105     0.03900
C619        C  0.27116575  0.77942421  0.12018709    -0.12100
C620        C  0.26496392  0.74607485  0.11474584     0.23200
C621        C  0.27394617  0.73195891  0.08638327    -0.12700
C622        C  0.28894210  0.75111923  0.06357212     0.04600
C623        C  0.24649354  0.72673243  0.13781077     0.27100
C624        C  0.26229646  0.71259677  0.16339622    -0.13400
C625        C  0.24402794  0.69622660  0.18616310     0.05200
C626        C  0.20983311  0.69400748  0.18340254    -0.09400
C627        C  0.19442717  0.70718279  0.15713558     0.06000
C628        C  0.21263757  0.72339054  0.13446267    -0.13700
Br629      Br  0.26447691  0.68665900  0.07841209    -0.05800
Br630      Br  0.29527862  0.84392411  0.10522733    -0.00200
Br631      Br  0.26578485  0.67815831  0.22167648     0.00300
Br632      Br  0.19118536  0.74123576  0.09860509    -0.04100
Br633      Br  0.29932961  0.73217894  0.02409644     0.00400
Br634      Br  0.25754114  0.79920750  0.15838953    -0.03400
Br635      Br  0.30893541  0.71599432  0.16712488    -0.04300
Br636      Br  0.14841268  0.70220430  0.15129645    -0.00300
C637        C  0.19206391  0.71143753  0.31785674     0.01100
C638        C  0.18428731  0.70404866  0.34867289     0.03900
C639        C  0.19904918  0.72144804  0.37282874    -0.12100
C640        C  0.22206126  0.74588245  0.36623281     0.23200
C641        C  0.22878103  0.75417289  0.33539358    -0.12700
C642        C  0.21371075  0.73705432  0.31124214     0.04600
C643        C  0.24095177  0.76124173  0.39152496     0.27100
C644        C  0.22906575  0.78917304  0.40664175    -0.13400
C645        C  0.24768754  0.80430063  0.42979391     0.05200
C646        C  0.27900282  0.79185557  0.43771702    -0.09400
C647        C  0.28991824  0.76247985  0.42340414     0.06000
C648        C  0.27104804  0.74765219  0.40026341    -0.13700
Br649      Br  0.25885730  0.78890307  0.32643521    -0.05800
Br650      Br  0.15440003  0.66914994  0.35772832    -0.00200
Br651      Br  0.22825090  0.84055055  0.45180368     0.00300
Br652      Br  0.28635261  0.70847033  0.37991580    -0.04100
Br653      Br  0.22216528  0.74902363  0.26907358     0.00400
Br654      Br  0.18802339  0.71179067  0.41499163    -0.03400
Br655      Br  0.18691299  0.80651342  0.39545784    -0.04300
Br656      Br  0.33045381  0.74135213  0.43458988    -0.00300
O657        O  0.07787332  0.63657721  0.72538475    -0.85600
O658        O  0.12579476  0.59008843  0.71727648    -0.82600
C659        C  0.15395441  0.57784104  0.71569332     0.97900
O660        O  0.17639920  0.58740427  0.73363092    -0.82700
O661        O  0.19381932  0.64939524  0.71510244    -0.85300
C662        C  0.18997358  0.67906972  0.70822210     1.02400
O663        O  0.16950041  0.69656462  0.72259135    -0.78100
O664        O  0.10873868  0.67418690  0.70554771    -0.78300
C665        C  0.08398181  0.65627714  0.70376226     1.02400
O666        O  0.09046097  0.63454764  0.79026396    -0.85600
O667        O  0.13202242  0.58264384  0.78236360    -0.82600
C668        C  0.15457396  0.58799119  0.80137943     0.97900
O669        O  0.17416521  0.61105302  0.79690208    -0.82700
O670        O  0.19479152  0.67165936  0.77818777    -0.85300
C671        C  0.17749882  0.69234877  0.79264165     1.02400
O672        O  0.14809260  0.69716337  0.78567976    -0.78100
O673        O  0.08550563  0.68193678  0.76789521    -0.78200
C674        C  0.07648472  0.66187896  0.78833371     1.02300
Cr675      Cr  0.10900340  0.61327059  0.75367990     1.93700
Cr676      Cr  0.18152328  0.63081093  0.75563125     1.93200
Cr677      Cr  0.12896159  0.68426319  0.74584661     1.39100
O678        O  0.14008559  0.64275301  0.75157389    -1.23300
O679        O  0.41054558  0.85586209  0.97407752    -0.85600
O680        O  0.36171469  0.89870510  0.95975651    -0.82600
C681        C  0.33367834  0.91115422  0.95826516     0.97900
O682        O  0.31188392  0.90351418  0.97762729    -0.82700
O683        O  0.29651311  0.83984017  0.96443310    -0.85300
C684        C  0.29979445  0.80949168  0.96065524     1.02400
O685        O  0.32035313  0.79398775  0.97672217    -0.78100
O686        O  0.38163745  0.81504425  0.95810084    -0.78300
C687        C  0.40552041  0.83389427  0.95444090     1.02400
O688        O  0.39778135  0.86601858  0.53788960    -0.85600
O689        O  0.35442493  0.91525005  0.52286834    -0.82600
C690        C  0.33323275  0.91135575  0.54354759     0.97900
O691        O  0.31494514  0.88679437  0.54251146    -0.82700
O692        O  0.29401638  0.82427163  0.52933137    -0.85300
C693        C  0.31088972  0.80426577  0.54495721     1.02400
O694        O  0.34060760  0.79977639  0.53924732    -0.78100
O695        O  0.40234403  0.81543830  0.52171739    -0.78200
C696        C  0.40981508  0.83771932  0.54051631     1.02300
Cr697      Cr  0.37884193  0.88154736  0.99884745     1.93700
Cr698      Cr  0.30738001  0.86267486  0.50330317     1.93200
Cr699      Cr  0.36037098  0.80932994  0.99888937     1.39100
O700        O  0.34871352  0.85106323  0.00042144    -1.23300
O701        O  0.86201400  0.59284102  0.95792288    -0.85600
O702        O  0.91078456  0.63843770  0.96755904    -0.82600
C703        C  0.90526527  0.66386508  0.95168118     0.97900
O704        O  0.88078478  0.68153989  0.95723937    -0.82700
O705        O  0.81820518  0.69625051  0.97599547    -0.85300
C706        C  0.79948079  0.67933179  0.95915606     1.02400
O707        O  0.79789877  0.64884872  0.96305835    -0.78100
O708        O  0.81474709  0.58584116  0.97996355    -0.78300
C709        C  0.83480258  0.57888411  0.95895172     1.02400
O710        O  0.86050874  0.57891363  0.52390322    -0.85600
O711        O  0.90464069  0.62746184  0.53213911    -0.82600
C712        C  0.91499062  0.65601034  0.53558762     0.97900
O713        O  0.90282132  0.67956881  0.52040155    -0.82700
O714        O  0.83966873  0.69040536  0.53927131    -0.85300
C715        C  0.80976172  0.68610968  0.54368550     1.02400
O716        O  0.79384033  0.66718206  0.52652432    -0.78100
O717        O  0.81913495  0.60681789  0.54255337    -0.78200
C718        C  0.83922102  0.58349739  0.54474640     1.02300
Cr719      Cr  0.88195042  0.61164719  0.99543811     1.93700
Cr720      Cr  0.85962800  0.68358005  0.99829151     1.93200
Cr721      Cr  0.80967753  0.62824138  0.00270766     1.39100
O722        O  0.85064075  0.64124638  0.99886448    -1.23300
O723        O  0.62841199  0.89833078  0.71372706    -0.86400
O724        O  0.57690557  0.85720722  0.72313952    -0.82600
C725        C  0.58129995  0.83503218  0.70342427     0.97900
O726        O  0.60455644  0.81504361  0.70617509    -0.82700
O727        O  0.66415491  0.79000723  0.72434554    -0.85300
C728        C  0.68434849  0.80596541  0.70841551     1.02400
O729        O  0.68926155  0.83571140  0.71404177    -0.78100
O730        O  0.67787873  0.89882459  0.73251707    -0.78300
C731        C  0.65726834  0.90844012  0.71282525     1.02400
O732        O  0.63398816  0.90825578  0.77865163    -0.85600
O733        O  0.58708057  0.86121478  0.78767443    -0.82600
C734        C  0.57286666  0.83402696  0.78718314     0.97900
O735        O  0.58154062  0.81214566  0.76833335    -0.82700
O736        O  0.64284531  0.79339839  0.78720563    -0.85300
C737        C  0.67280113  0.79553114  0.79290239     1.02400
O738        O  0.69088317  0.81411179  0.77719201    -0.78100
O739        O  0.67295859  0.87624367  0.79540276    -0.78200
C740        C  0.65532409  0.90133572  0.79854906     1.02300
Cr741      Cr  0.60885010  0.87885743  0.75085195     1.93700
Cr742      Cr  0.62436722  0.80577746  0.74681640     1.93200
Cr743      Cr  0.67955373  0.85549907  0.75456201     1.39100
O744        O  0.63759374  0.84667247  0.75084725    -1.23300
O745        O  0.08847356  0.35975613  0.54019722    -0.85600
O746        O  0.12951059  0.41121796  0.53048464    -0.82600
C747        C  0.15213412  0.40611094  0.54959763     0.97900
O748        O  0.17212917  0.38312502  0.54505735    -0.82700
O749        O  0.19489071  0.32258464  0.52711789    -0.85300
C750        C  0.17903989  0.30198916  0.54277651     1.02400
O751        O  0.14944817  0.29676913  0.53711408    -0.78100
O752        O  0.08618687  0.31031437  0.52098638    -0.78300
C753        C  0.07730979  0.33126140  0.54067771     1.02400
O754        O  0.07568256  0.35508119  0.97575946    -0.85600
O755        O  0.12283403  0.40099940  0.96536928    -0.82600
C756        C  0.15065865  0.41351139  0.96367863     0.97900
O757        O  0.17310452  0.40499691  0.98195572    -0.82700
O758        O  0.19058267  0.34282812  0.96347399    -0.85300
C759        C  0.18735768  0.31287449  0.95732206     1.02400
O760        O  0.16825437  0.29546312  0.97315973    -0.78100
O761        O  0.10600233  0.31546134  0.95763618    -0.78200
C762        C  0.08106334  0.33340578  0.95569279     1.02300
Cr763      Cr  0.10667758  0.37942290  0.00280327     1.93700
Cr764      Cr  0.17942978  0.36235900  0.00416785     1.93200
Cr765      Cr  0.12836017  0.30786542  0.99749124     1.39100
O766        O  0.13825057  0.34985357  0.00142581    -1.23300
O767        O  0.36336562  0.09193064  0.71143434    -0.85600
O768        O  0.41437909  0.13327213  0.72308641    -0.82600
C769        C  0.40987419  0.15543463  0.70339422     0.97900
O770        O  0.38666665  0.17537834  0.70675078    -0.82700
O771        O  0.32611717  0.19860429  0.72267941    -0.85300
C772        C  0.30532663  0.18259132  0.70751229     1.02400
O773        O  0.29940496  0.15318979  0.71390568    -0.78100
O774        O  0.31352750  0.08968573  0.72939269    -0.78300
C775        C  0.33481062  0.08114518  0.70988695     1.02400
O776        O  0.35737038  0.07892464  0.77597620    -0.85600
O777        O  0.40216236  0.12677209  0.78720026    -0.82600
C778        C  0.41473121  0.15461543  0.78908876     0.97900
O779        O  0.40672443  0.17721361  0.77063946    -0.82700
O780        O  0.34432078  0.19534477  0.78693323    -0.85300
C781        C  0.31471062  0.19095132  0.79338201     1.02400
O782        O  0.29765267  0.17118581  0.77802563    -0.78100
O783        O  0.31740720  0.10918671  0.79326798    -0.78200
C784        C  0.33583583  0.08468272  0.79597121     1.02300
Cr785      Cr  0.38186680  0.11027906  0.74944762     1.93700
Cr786      Cr  0.36489522  0.18331228  0.74700888     1.93200
Cr787      Cr  0.31040569  0.13170833  0.75339421     1.39100
O788        O  0.35228518  0.14192929  0.75002462    -1.23300
O789        O  0.58104100  0.12746437  0.97474234    -0.85600
O790        O  0.63118267  0.08448960  0.96318344    -0.82600
C791        C  0.65945787  0.07262143  0.96178502     0.97900
O792        O  0.68126513  0.08125407  0.98061989    -0.82700
O793        O  0.69695594  0.14348620  0.96250266    -0.85300
C794        C  0.69112593  0.17259799  0.95458378     1.02400
O795        O  0.67066625  0.18975615  0.96931521    -0.78100
O796        O  0.60980209  0.16703465  0.95560966    -0.78300
C797        C  0.58566056  0.14830915  0.95397869     1.02400
O798        O  0.59446346  0.12312707  0.53859604    -0.85600
O799        O  0.63854671  0.07310722  0.52748993    -0.82600
C800        C  0.66050223  0.07844154  0.54709399     0.97900
O801        O  0.67879755  0.10283564  0.54391729    -0.82700
O802        O  0.69948840  0.16421539  0.52601012    -0.85300
C803        C  0.68317157  0.18590762  0.54003692     1.02400
O804        O  0.65353330  0.19074975  0.53376531    -0.78100
O805        O  0.59043028  0.17274314  0.51945939    -0.78200
C806        C  0.58180503  0.15124348  0.53880001     1.02300
Cr807      Cr  0.61386044  0.10454326  0.00096574     1.93700
Cr808      Cr  0.68577689  0.12397232  0.50308546     1.93200
Cr809      Cr  0.63210554  0.17673575  0.49499059     1.39100
O810        O  0.64406856  0.13528643  0.49988678    -1.23300
O811        O  0.85463440  0.41142266  0.77655546    -0.85600
O812        O  0.89647797  0.36054414  0.79186422    -0.82600
C813        C  0.90860854  0.33221346  0.79316290     0.97900
O814        O  0.90155341  0.31100977  0.77298766    -0.82700
O815        O  0.83795768  0.29388650  0.78393784    -0.85300
C816        C  0.80815828  0.29924005  0.78884558     1.02400
O817        O  0.79284276  0.32125266  0.77419583    -0.78100
O818        O  0.81378051  0.38229694  0.79220722    -0.78300
C819        C  0.83239629  0.40635454  0.79584172     1.02400
O820        O  0.86658703  0.39886801  0.71365052    -0.85600
O821        O  0.91479365  0.35468264  0.72911758    -0.82600
C822        C  0.91041524  0.33453183  0.70766791     0.97900
O823        O  0.88560806  0.31675495  0.70793227    -0.82700
O824        O  0.82421165  0.29441977  0.71917834    -0.85300
C825        C  0.80440071  0.31152247  0.70369521     1.02400
O826        O  0.79895216  0.34097356  0.71061505    -0.78100
O827        O  0.81544851  0.40330071  0.72808457    -0.78200
C828        C  0.83881624  0.41169520  0.71068427     1.02300
Cr829      Cr  0.88063952  0.37894815  0.75266529     1.93700
Cr830      Cr  0.86147704  0.30729140  0.74629470     1.93200
Cr831      Cr  0.80845354  0.36098747  0.75125184     1.39100
O832        O  0.84993583  0.34886682  0.75018587    -1.23300
C833        C  0.69956819  0.20627742  0.56365407     0.01100
C834        C  0.71322082  0.19157165  0.59011223     0.03900
C835        C  0.72983791  0.21061506  0.61196630    -0.12100
C836        C  0.73350353  0.24444389  0.60740838     0.23200
C837        C  0.72016461  0.25923597  0.58091327    -0.12700
C838        C  0.70288061  0.24029986  0.55929205     0.04600
C839        C  0.75147849  0.26409799  0.63069414     0.27100
C840        C  0.73477203  0.27771685  0.65600317    -0.13400
C841        C  0.75211406  0.29335133  0.67973345     0.05200
C842        C  0.78626215  0.29619410  0.67799632    -0.09400
C843        C  0.80292507  0.28307493  0.65233573     0.06000
C844        C  0.78560976  0.26681940  0.62894315    -0.13700
Br845      Br  0.72642951  0.30529021  0.57398633    -0.05800
Br846      Br  0.70849685  0.14540922  0.59718645    -0.00200
Br847      Br  0.72933855  0.30850154  0.71589898     0.00300
Br848      Br  0.80864198  0.24711361  0.59491741    -0.04100
Br849      Br  0.68491053  0.26079895  0.52304729     0.00400
Br850      Br  0.74792369  0.19043243  0.64834909    -0.03400
Br851      Br  0.68813850  0.27370686  0.65865157    -0.04300
Br852      Br  0.84942422  0.28762449  0.64880373    -0.00300
C853        C  0.70891154  0.18731810  0.92812225     0.01100
C854        C  0.74328354  0.18852553  0.92800159     0.03900
C855        C  0.75990928  0.20407359  0.90364537    -0.12100
C856        C  0.74233912  0.21959310  0.87986726     0.23200
C857        C  0.70817588  0.21768837  0.87948659    -0.12700
C858        C  0.69157698  0.20112139  0.90313052     0.04600
C859        C  0.75946966  0.23974117  0.85635786     0.27100
C860        C  0.76561565  0.27296405  0.86239313    -0.13400
C861        C  0.78129012  0.29247164  0.84023864     0.05200
C862        C  0.79074860  0.27898341  0.81175272    -0.09400
C863        C  0.78376079  0.24597638  0.80532078     0.06000
C864        C  0.76830274  0.22635703  0.82762782    -0.13700
Br865      Br  0.68415477  0.23850245  0.84663596    -0.05800
Br866      Br  0.76767496  0.17088802  0.96215560    -0.00200
Br867      Br  0.79003494  0.33765057  0.84914122     0.00300
Br868      Br  0.75855067  0.18132860  0.81877156    -0.04100
Br869      Br  0.64516933  0.19629150  0.90006188     0.00400
Br870      Br  0.80681724  0.20452313  0.90278783    -0.03400
Br871      Br  0.75180800  0.29187333  0.90093341    -0.04300
Br872      Br  0.79386179  0.22818563  0.76531876    -0.00300
C873        C  0.43275061  0.15808238  0.67692908     0.01100
C874        C  0.44258346  0.12965898  0.66071242     0.03900
C875        C  0.46617938  0.13160034  0.63731962    -0.12100
C876        C  0.47958207  0.16194825  0.62919751     0.23200
C877        C  0.46917170  0.19047152  0.64449449    -0.12700
C878        C  0.44630865  0.18854082  0.66866189     0.04600
C879        C  0.50581612  0.16329392  0.60560898     0.27100
C880        C  0.53870096  0.16279108  0.61488059    -0.13400
C881        C  0.56362687  0.16073673  0.59274277     0.05200
C882        C  0.55583379  0.15842927  0.56130668    -0.09400
C883        C  0.52301118  0.16015010  0.55186361     0.06000
C884        C  0.49804106  0.16274601  0.57400693    -0.13700
Br885      Br  0.48692852  0.23208423  0.63254763    -0.05800
Br886      Br  0.42363328  0.08767589  0.66955642    -0.00200
Br887      Br  0.60865988  0.16136134  0.60524017     0.00300
Br888      Br  0.45306555  0.16428841  0.56130542    -0.04100
Br889      Br  0.43607817  0.22734162  0.69201757     0.00400
Br890      Br  0.48096594  0.09238737  0.61673834    -0.03400
Br891      Br  0.54951676  0.16341407  0.65803659    -0.04300
Br892      Br  0.51211390  0.15722962  0.50876634    -0.00300
C893        C  0.44006262  0.15990578  0.81242613     0.01100
C894        C  0.43125260  0.16301182  0.84360386     0.03900
C895        C  0.45530123  0.16217409  0.86657820    -0.12100
C896        C  0.48831316  0.15902516  0.85830775     0.23200
C897        C  0.49724833  0.15726719  0.82704588    -0.12700
C898        C  0.47312629  0.15773860  0.80410186     0.04600
C899        C  0.51359506  0.15646423  0.88248094     0.27100
C900        C  0.52657554  0.18484892  0.89580318    -0.13400
C901        C  0.55005271  0.18233916  0.91927041     0.05200
C902        C  0.56184670  0.15132938  0.92847869    -0.09400
C903        C  0.54935394  0.12289635  0.91424585     0.06000
C904        C  0.52470071  0.12552690  0.89196267    -0.13700
Br905      Br  0.54250391  0.15272328  0.81593391    -0.05800
Br906      Br  0.38620722  0.16856495  0.85471975    -0.00200
Br907      Br  0.56388434  0.22152507  0.94008004     0.00300
Br908      Br  0.50555999  0.08668594  0.87456400    -0.04100
Br909      Br  0.48524060  0.15415652  0.76135087     0.00400
Br910      Br  0.44304160  0.16372311  0.90942936    -0.03400
Br911      Br  0.51175975  0.22712832  0.88186241    -0.04300
Br912      Br  0.56668650  0.08014338  0.92373199    -0.00300
C913        C  0.05257546  0.32329718  0.56378399     0.01100
C914        C  0.01937932  0.32491672  0.55587017     0.03900
C915        C  0.99560498  0.32450066  0.57913048    -0.12100
C916        C  0.00507551  0.32137088  0.61014435     0.23200
C917        C  0.03816890  0.31765077  0.61783091    -0.12700
C918        C  0.06193885  0.31873307  0.59463718     0.04600
C919        C  0.98060758  0.32460110  0.63489754     0.27100
C920        C  0.97320782  0.35574312  0.64667838    -0.13400
C921        C  0.94981276  0.35924679  0.67004029     0.05200
C922        C  0.93495247  0.33123375  0.68291033    -0.09400
C923        C  0.94396991  0.29987604  0.67213169     0.06000
C924        C  0.96581909  0.29672579  0.64741509    -0.13700
Br925      Br  0.05085392  0.31320109  0.66037315    -0.05800
Br926      Br  0.00664395  0.32920554  0.51332202    -0.00200
Br927      Br  0.93804485  0.40281603  0.68318504     0.00300
Br928      Br  0.97590432  0.25421028  0.63078490    -0.04100
Br929      Br  0.10740187  0.31467288  0.60505616     0.00400
Br930      Br  0.95028536  0.33053592  0.56888527    -0.03400
Br931      Br  0.99587943  0.39352309  0.63101497    -0.04300
Br932      Br  0.92922087  0.26097412  0.69296362    -0.00300
C933        C  0.93256314  0.32455860  0.81758755     0.01100
C934        C  0.92443091  0.32986223  0.84875381     0.03900
C935        C  0.94820705  0.32609613  0.87179272    -0.12100
C936        C  0.98039411  0.31772349  0.86375915     0.23200
C937        C  0.98823899  0.31089831  0.83287167    -0.12700
C938        C  0.96438499  0.31418885  0.80979193     0.04600
C939        C  0.00677935  0.32092751  0.88687786     0.27100
C940        C  0.02017426  0.35194556  0.89225056    -0.13400
C941        C  0.04505808  0.35582974  0.91406778     0.05200
C942        C  0.05690643  0.32859320  0.93075964    -0.09400
C943        C  0.04368793  0.29734381  0.92502688     0.06000
C944        C  0.01856178  0.29360825  0.90321488    -0.13700
Br945      Br  0.03233568  0.29902230  0.82216706    -0.05800
Br946      Br  0.88078681  0.34272247  0.85998617    -0.00200
Br947      Br  0.06320686  0.39869247  0.92006718     0.00300
Br948      Br  0.99945288  0.25135886  0.89622338    -0.04100
Br949      Br  0.97643097  0.30746886  0.76730966     0.00400
Br950      Br  0.93724771  0.33379635  0.91436441    -0.03400
Br951      Br  0.00395512  0.38933967  0.86967032    -0.04300
Br952      Br  0.05832713  0.25983593  0.94824751    -0.00300
C953        C  0.19585913  0.28311891  0.56727450     0.01100
C954        C  0.21419796  0.29944498  0.59000135     0.03900
C955        C  0.23237524  0.28152678  0.61166613    -0.12100
C956        C  0.23132381  0.24718653  0.61170564     0.23200
C957        C  0.21167133  0.23078558  0.59018334    -0.12700
C958        C  0.19429868  0.24863865  0.56775703     0.04600
C959        C  0.25002059  0.22872592  0.63532618     0.27100
C960        C  0.28360256  0.22296357  0.63131203    -0.13400
C961        C  0.30197649  0.20854963  0.65513542     0.05200
C962        C  0.28660548  0.19885630  0.68272330    -0.09400
C963        C  0.25294492  0.20437981  0.68652323     0.06000
C964        C  0.23474025  0.21935118  0.66293806    -0.13700
Br965      Br  0.20836375  0.18385495  0.59174830    -0.05800
Br966      Br  0.21253252  0.34630915  0.59353167    -0.00200
Br967      Br  0.34815059  0.20240271  0.64974660     0.00300
Br968      Br  0.18890386  0.22786234  0.66857152    -0.04100
Br969      Br  0.16931033  0.22554327  0.53717611     0.00400
Br970      Br  0.25848592  0.30400668  0.64184748    -0.03400
Br971      Br  0.30432443  0.23506030  0.59310967    -0.04300
Br972      Br  0.23214492  0.19336449  0.72490957    -0.00300
C973        C  0.20688483  0.29737793  0.93214217     0.01100
C974        C  0.24088398  0.30240455  0.93016234     0.03900
C975        C  0.25952468  0.28624329  0.90741375    -0.12100
C976        C  0.24464133  0.26437201  0.88681622     0.23200
C977        C  0.21082259  0.25917968  0.88873894    -0.12700
C978        C  0.19193829  0.27609148  0.91076534     0.04600
C979        C  0.26455379  0.24617011  0.86359867     0.27100
C980        C  0.27374691  0.26118866  0.83568987    -0.13400
C981        C  0.29147172  0.24345198  0.81338403     0.05200
C982        C  0.29903574  0.21023285  0.81826181    -0.09400
C983        C  0.29006651  0.19527789  0.84628619     0.06000
C984        C  0.27370631  0.21345341  0.86917210    -0.13700
Br985      Br  0.19049001  0.22810235  0.86150174    -0.05800
Br986      Br  0.26269568  0.32969020  0.95976949    -0.00200
Br987      Br  0.30450563  0.26427919  0.77553234     0.00300
Br988      Br  0.26401409  0.19375242  0.90846286    -0.04100
Br989      Br  0.14530693  0.27110666  0.91013726     0.00400
Br990      Br  0.30586999  0.29302383  0.90499391    -0.03400
Br991      Br  0.26148168  0.30591435  0.82778517    -0.04300
Br992      Br  0.29995638  0.14986660  0.85354195    -0.00300
C993        C  0.66655449  0.93194745  0.68859990     0.01100
C994        C  0.66395045  0.92276522  0.65744953     0.03900
C995        C  0.66727972  0.94633643  0.63409122    -0.12100
C996        C  0.67434294  0.97899544  0.64173662     0.23200
C997        C  0.68002561  0.98746369  0.67272021    -0.12700
C998        C  0.67562207  0.96411479  0.69620257     0.04600
C999        C  0.67156298  0.00504234  0.61792342     0.27100
C1000       C  0.69917825  0.01679802  0.60232195    -0.13400
C1001       C  0.69595424  0.04175915  0.58003522     0.05200
C1002       C  0.66486179  0.05480184  0.57289743    -0.09400
C1003       C  0.63727242  0.04287447  0.58882273     0.06000
C1004       C  0.64066554  0.01812586  0.61108057    -0.13700
Br1005     Br  0.69253315  0.03147136  0.68290051    -0.05800
Br1006     Br  0.65617978  0.87765761  0.64690154    -0.00200
Br1007     Br  0.73407258  0.05636165  0.55816324     0.00300
Br1008     Br  0.60269462  0.00138587  0.63199738    -0.04100
Br1009     Br  0.67952169  0.97687983  0.73877214     0.00400
Br1010     Br  0.66059862  0.93431907  0.59168830    -0.03400
Br1011     Br  0.74117207  0.99756739  0.61076511    -0.04300
Br1012     Br  0.59443437  0.06073194  0.58124262    -0.00300
C1013       C  0.66008706  0.92401388  0.82467963     0.01100
C1014       C  0.69146202  0.93573220  0.83197018     0.03900
C1015       C  0.69527571  0.95959782  0.85501374    -0.12100
C1016       C  0.66779448  0.97243273  0.87018836     0.23200
C1017       C  0.63653657  0.96119009  0.86271312    -0.12700
C1018       C  0.63270832  0.93649837  0.84066841     0.04600
C1019       C  0.67112690  0.99840860  0.89360689     0.27100
C1020       C  0.67274914  0.99007378  0.92502938    -0.13400
C1021       C  0.67030138  0.01461190  0.94755159     0.05200
C1022       C  0.66647359  0.04748174  0.93857766    -0.09400
C1023       C  0.66647203  0.05593204  0.90715902     0.06000
C1024       C  0.66871399  0.03139361  0.88467079    -0.13700
Br1025     Br  0.59874510  0.98095092  0.88181779    -0.05800
Br1026     Br  0.72904484  0.92137531  0.80889024    -0.00200
Br1027     Br  0.66954350  0.00296311  0.99059264     0.00300
Br1028     Br  0.66659248  0.04259524  0.84158392    -0.04100
Br1029     Br  0.58969562  0.91949684  0.83350734     0.00400
Br1030     Br  0.73787333  0.97598110  0.86501151    -0.03400
Br1031     Br  0.67645493  0.94483327  0.93702151    -0.04300
Br1032     Br  0.66285871  0.10113271  0.89501461    -0.00300
C1033       C  0.83699057  0.56058327  0.57127570     0.01100
C1034       C  0.86442012  0.55435724  0.59009844     0.03900
C1035       C  0.86230587  0.53227972  0.61488161    -0.12100
C1036       C  0.83302926  0.51574058  0.62077863     0.23200
C1037       C  0.80542325  0.52235926  0.60262044    -0.12700
C1038       C  0.80729989  0.54474713  0.57801074     0.04600
C1039       C  0.83238714  0.48889480  0.64384658     0.27100
C1040       C  0.84206682  0.45724675  0.63487506    -0.13400
C1041       C  0.84293253  0.43174093  0.65653705     0.05200
C1042       C  0.83436082  0.43776016  0.68746206    -0.09400
C1043       C  0.82399074  0.46933530  0.69637431     0.06000
C1044       C  0.82286500  0.49481724  0.67452491    -0.13700
Br1045     Br  0.76538251  0.49965211  0.61107044    -0.05800
Br1046     Br  0.90507645  0.57611943  0.58269673    -0.00200
Br1047     Br  0.85510494  0.38826042  0.64354589     0.00300
Br1048     Br  0.80896142  0.53800765  0.68660722    -0.04100
Br1049     Br  0.76961916  0.55168419  0.55230996     0.00400
Br1050     Br  0.89973449  0.52406324  0.64067994    -0.03400
Br1051     Br  0.85453263  0.44907040  0.59273754    -0.04300
Br1052     Br  0.81341212  0.47834335  0.73885933    -0.00300
C1053       C  0.82686460  0.55346564  0.93614483     0.01100
C1054       C  0.82267601  0.56204180  0.90503406     0.03900
C1055       C  0.82047882  0.53762042  0.88244085    -0.12100
C1056       C  0.81994133  0.50451428  0.89119955     0.23200
C1057       C  0.82067913  0.49602572  0.92261398    -0.12700
C1058       C  0.82479219  0.52042193  0.94507546     0.04600
C1059       C  0.82237447  0.47861825  0.86746532     0.27100
C1060       C  0.79433253  0.46537175  0.85386187    -0.13400
C1061       C  0.79721859  0.44082030  0.83121634     0.05200
C1062       C  0.82841016  0.42967954  0.82185933    -0.09400
C1063       C  0.85646393  0.44306156  0.83602660     0.06000
C1064       C  0.85332693  0.46739067  0.85858601    -0.13700
Br1065     Br  0.81744511  0.45076443  0.93448802    -0.05800
Br1066     Br  0.81799706  0.60720327  0.89371430    -0.00200
Br1067     Br  0.75824106  0.42438975  0.81205659     0.00300
Br1068     Br  0.89168849  0.48616327  0.87714439    -0.04100
Br1069     Br  0.82918043  0.50836606  0.98778462     0.00400
Br1070     Br  0.82013346  0.54936628  0.83944817    -0.03400
Br1071     Br  0.75212084  0.48189260  0.86579317    -0.04300
Br1072     Br  0.89983402  0.42821620  0.82561368    -0.00300
C1073       C  0.68726194  0.77578951  0.81780385     0.01100
C1074       C  0.68198805  0.78463622  0.84873044     0.03900
C1075       C  0.69793573  0.76743945  0.87246498    -0.12100
C1076       C  0.71924798  0.74141862  0.86529354     0.23200
C1077       C  0.72320471  0.73156860  0.83444015    -0.12700
C1078       C  0.70740972  0.74886818  0.81070217     0.04600
C1079       C  0.73921777  0.72584147  0.88984152     0.27100
C1080       C  0.77022154  0.73830819  0.89660666    -0.13400
C1081       C  0.79006458  0.72304946  0.91885597     0.05200
C1082       C  0.77855427  0.69556115  0.93543543    -0.09400
C1083       C  0.74677535  0.68379084  0.92909482     0.06000
C1084       C  0.72762070  0.69848926  0.90592904    -0.13700
Br1085     Br  0.75051572  0.69446580  0.82488140    -0.05800
Br1086     Br  0.65419497  0.82140860  0.85833758    -0.00200
Br1087     Br  0.83353829  0.73957220  0.92488662     0.00300
Br1088     Br  0.68534986  0.68119347  0.89579911    -0.04100
Br1089     Br  0.71327548  0.73571979  0.76842283     0.00400
Br1090     Br  0.69113545  0.77978354  0.91478799    -0.03400
Br1091     Br  0.78548672  0.77646542  0.87490170    -0.04300
Br1092     Br  0.72784599  0.64893894  0.95306317    -0.00300
C1093       C  0.79270202  0.70449502  0.56798375     0.01100
C1094       C  0.77613342  0.73368263  0.56057084     0.03900
C1095       C  0.75906574  0.75091754  0.58351036    -0.12100
C1096       C  0.75811117  0.73874258  0.61381540     0.23200
C1097       C  0.77487194  0.70966472  0.62128503    -0.12700
C1098       C  0.79216420  0.69255244  0.59837446     0.04600
C1099       C  0.73913974  0.75632496  0.63774892     0.27100
C1100       C  0.75472992  0.77849517  0.65748147    -0.13400
C1101       C  0.73697540  0.79450789  0.68076818     0.05200
C1102       C  0.70311301  0.78921284  0.68379613    -0.09400
C1103       C  0.68745431  0.76734531  0.66344867     0.06000
C1104       C  0.70553442  0.75074397  0.64076448    -0.13700
Br1105     Br  0.77391784  0.69335279  0.66292759    -0.05800
Br1106     Br  0.77666721  0.74995172  0.51890979    -0.00200
Br1107     Br  0.75995748  0.82185822  0.70960545     0.00300
Br1108     Br  0.68435089  0.72021344  0.61359466    -0.04100
Br1109     Br  0.81448777  0.65236758  0.60836892     0.00400
Br1110     Br  0.73706842  0.79134179  0.57363825    -0.03400
Br1111     Br  0.80059932  0.78677445  0.65239468    -0.04300
Br1112     Br  0.64100541  0.76075058  0.66529541    -0.00300
C1113       C  0.32685107  0.05755697  0.68546240     0.01100
C1114       C  0.32442847  0.06822748  0.65472279     0.03900
C1115       C  0.32196676  0.04533159  0.63070819    -0.12100
C1116       C  0.32204203  0.01165854  0.63741909     0.23200
C1117       C  0.32289385  0.00106356  0.66829903    -0.12700
C1118       C  0.32492228  0.02401360  0.69231906     0.04600
C1119       C  0.32429042  0.98724197  0.61221485     0.27100
C1120       C  0.29617981  0.97227523  0.60048178    -0.13400
C1121       C  0.29884025  0.94721332  0.57832075     0.05200
C1122       C  0.32992750  0.93673231  0.56797164    -0.09400
C1123       C  0.35806213  0.95238065  0.57967305     0.06000
C1124       C  0.35509790  0.97791694  0.60112499    -0.13700
Br1125     Br  0.32328810  0.95495416  0.67744920    -0.05800
Br1126     Br  0.32457701  0.11429614  0.64566408    -0.00200
Br1127     Br  0.25959486  0.92897831  0.56122883     0.00300
Br1128     Br  0.39332408  0.00085564  0.61514530    -0.04100
Br1129     Br  0.32657660  0.00950126  0.73453439     0.00400
Br1130     Br  0.32006815  0.05990276  0.58854385    -0.03400
Br1131     Br  0.25400606  0.98713337  0.61427282    -0.04300
Br1132     Br  0.40138807  0.93840856  0.56804513    -0.00300
C1133       C  0.32727113  0.93652738  0.93495122     0.01100
C1134       C  0.32038516  0.96884252  0.94424866     0.03900
C1135       C  0.31882712  0.99397339  0.92220780    -0.12100
C1136       C  0.32334851  0.98673387  0.89080457     0.23200
C1137       C  0.32878237  0.95425730  0.88138499    -0.12700
C1138       C  0.33109803  0.92925909  0.90345342     0.04600
C1139       C  0.32549215  0.01347714  0.86794681     0.27100
C1140       C  0.29863827  0.02153254  0.84926543    -0.13400
C1141       C  0.30168117  0.04555238  0.82623761     0.05200
C1142       C  0.33167697  0.06155777  0.82183871    -0.09400
C1143       C  0.35834702  0.05372009  0.84107059     0.06000
C1144       C  0.35521794  0.02979955  0.86401779    -0.13700
Br1145     Br  0.33441343  0.94434792  0.83826271    -0.05800
Br1146     Br  0.31555471  0.97926309  0.98733325    -0.00200
Br1147     Br  0.26540724  0.05464250  0.79933801     0.00300
Br1148     Br  0.39203550  0.01860052  0.88972816    -0.04100
Br1149     Br  0.33975862  0.88508129  0.89049353     0.00400
Br1150     Br  0.31254341  0.03866767  0.93505239    -0.03400
Br1151     Br  0.25814424  0.99865540  0.85467103    -0.04300
Br1152     Br  0.39941029  0.07562140  0.83675105    -0.00300
C1153       C  0.43371874  0.83125776  0.56510937     0.01100
C1154       C  0.42646270  0.84009537  0.59575916     0.03900
C1155       C  0.45031340  0.83689372  0.61869868    -0.12100
C1156       C  0.48185091  0.82639157  0.61075153     0.23200
C1157       C  0.48879207  0.81617528  0.58059545    -0.12700
C1158       C  0.46443721  0.81749196  0.55798072     0.04600
C1159       C  0.50821233  0.82793104  0.63369128     0.27100
C1160       C  0.52536193  0.85725319  0.63747639    -0.13400
C1161       C  0.54964136  0.85948220  0.66001624     0.05200
C1162       C  0.55767237  0.83191672  0.67813889    -0.09400
C1163       C  0.54083508  0.80229373  0.67379395     0.06000
C1164       C  0.51593536  0.80044552  0.65171059    -0.13700
Br1165     Br  0.53220103  0.80165095  0.57020883    -0.05800
Br1166     Br  0.38359243  0.85554935  0.60679450    -0.00200
Br1167     Br  0.57143301  0.90063578  0.66575447     0.00300
Br1168     Br  0.49156575  0.76070212  0.64651122    -0.04100
Br1169     Br  0.47390901  0.80100979  0.51740475     0.00400
Br1170     Br  0.44008397  0.84685429  0.66104513    -0.03400
Br1171     Br  0.51538277  0.89441982  0.61163517    -0.04300
Br1172     Br  0.54981165  0.76493731  0.69959886    -0.00300
C1173       C  0.54477226  0.82851720  0.80768123     0.01100
C1174       C  0.51959518  0.85208018  0.80900557     0.03900
C1175       C  0.49488798  0.84929172  0.83113132    -0.12100
C1176       C  0.49450435  0.82231220  0.85118540     0.23200
C1177       C  0.51778074  0.79720641  0.84801835    -0.12700
C1178       C  0.54311137  0.80035705  0.82643055     0.04600
C1179       C  0.47227798  0.82276728  0.87795523     0.27100
C1180       C  0.48275335  0.83766276  0.90522496    -0.13400
C1181       C  0.46103110  0.84217392  0.92985217     0.05200
C1182       C  0.42854989  0.83010101  0.92793538    -0.09400
C1183       C  0.41829389  0.81528070  0.90000213     0.06000
C1184       C  0.44023655  0.81146787  0.87533115    -0.13700
Br1185     Br  0.51558053  0.75938612  0.87441816    -0.05800
Br1186     Br  0.51801680  0.88758680  0.77974626    -0.00200
Br1187     Br  0.47708906  0.86673205  0.96474484     0.00300
Br1188     Br  0.42648181  0.79146733  0.83730638    -0.04100
Br1189     Br  0.57635614  0.76698587  0.82420277     0.00400
Br1190     Br  0.46236167  0.88325413  0.83515206    -0.03400
Br1191     Br  0.52732689  0.85254032  0.90825802    -0.04300
Br1192     Br  0.37354796  0.80322448  0.89314651    -0.00300
C1193       C  0.15552371  0.42802634  0.57686964     0.01100
C1194       C  0.12847176  0.43460493  0.59618899     0.03900
C1195       C  0.13121674  0.45673420  0.62089657    -0.12100
C1196       C  0.16079021  0.47288097  0.62643957     0.23200
C1197       C  0.18804815  0.46575365  0.60790123    -0.12700
C1198       C  0.18544903  0.44359440  0.58313123     0.04600
C1199       C  0.16196765  0.50006187  0.64929450     0.27100
C1200       C  0.15267278  0.53176674  0.64007458    -0.13400
C1201       C  0.15206237  0.55750896  0.66151468     0.05200
C1202       C  0.15994885  0.55168781  0.69265509    -0.09400
C1203       C  0.17028687  0.52014204  0.70174978     0.06000
C1204       C  0.17134520  0.49441571  0.68007961    -0.13700
Br1205     Br  0.22862374  0.48755815  0.61594698    -0.05800
Br1206     Br  0.08723864  0.41367474  0.58928327    -0.00200
Br1207     Br  0.14134116  0.60117057  0.64791071     0.00300
Br1208     Br  0.18450191  0.45114107  0.69264221    -0.04100
Br1209     Br  0.22219320  0.43724587  0.55610459     0.00400
Br1210     Br  0.09411274  0.46585586  0.64689599    -0.03400
Br1211     Br  0.13975384  0.53962550  0.59801666    -0.04300
Br1212     Br  0.18116747  0.51154364  0.74414414    -0.00300
C1213       C  0.15649438  0.43917402  0.94068866     0.01100
C1214       C  0.16009639  0.47184881  0.95008190     0.03900
C1215       C  0.16266357  0.49675283  0.92791765    -0.12100
C1216       C  0.16075305  0.48912148  0.89629234     0.23200
C1217       C  0.15765201  0.45626403  0.88697279    -0.12700
C1218       C  0.15623517  0.43129010  0.90917019     0.04600
C1219       C  0.16024742  0.51579708  0.87306050     0.27100
C1220       C  0.13203629  0.53512324  0.86960036    -0.13400
C1221       C  0.13143591  0.56067580  0.84802193     0.05200
C1222       C  0.15816853  0.56584604  0.82823154    -0.09400
C1223       C  0.18683978  0.54719418  0.83239076     0.06000
C1224       C  0.18788573  0.52229297  0.85483474    -0.13700
Br1225     Br  0.15387572  0.44552832  0.84390733    -0.05800
Br1226     Br  0.15970597  0.48264039  0.99332097    -0.00200
Br1227     Br  0.09484289  0.59012471  0.84758434     0.00300
Br1228     Br  0.22684774  0.49639952  0.86016472    -0.04100
Br1229     Br  0.15472198  0.38608389  0.89661131     0.00400
Br1230     Br  0.16766333  0.54152321  0.94088325    -0.03400
Br1231     Br  0.09365331  0.52586308  0.89377272    -0.04300
Br1232     Br  0.22448524  0.55506625  0.80700369    -0.00300
C1233       C  0.06133804  0.65871263  0.67697743     0.01100
C1234       C  0.04517110  0.63055002  0.66593096     0.03900
C1235       C  0.02219321  0.63318777  0.64202424    -0.12100
C1236       C  0.01729338  0.66323778  0.62673282     0.23200
C1237       C  0.03477105  0.69092429  0.63643386    -0.12700
C1238       C  0.05496377  0.68918599  0.66263357     0.04600
C1239       C  0.99279071  0.66552649  0.60139417     0.27100
C1240       C  0.99786938  0.64822955  0.57371116    -0.13400
C1241       C  0.97222827  0.64457921  0.55254196     0.05200
C1242       C  0.94239605  0.66123801  0.55715446    -0.09400
C1243       C  0.93810646  0.68051110  0.58372644     0.06000
C1244       C  0.96284700  0.68194538  0.60616552    -0.13700
Br1245     Br  0.03135619  0.73125538  0.61359800    -0.05800
Br1246     Br  0.05456480  0.58763295  0.68242010    -0.00200
Br1247     Br  0.97765510  0.61501874  0.51824023     0.00300
Br1248     Br  0.95472642  0.70475198  0.64430067    -0.04100
Br1249     Br  0.07018584  0.72942984  0.68065704     0.00400
Br1250     Br  0.99668655  0.59545088  0.63078310    -0.03400
Br1251     Br  0.03985633  0.62875835  0.56517604    -0.04300
Br1252     Br  0.89708708  0.70229116  0.59096566    -0.00300
C1253       C  0.04852895  0.66889202  0.80924470     0.01100
C1254       C  0.02760360  0.64303009  0.81760570     0.03900
C1255       C  0.00498223  0.64706216  0.84153345    -0.12100
C1256       C  0.00069811  0.67779655  0.85553451     0.23200
C1257       C  0.01898946  0.70464752  0.84503574    -0.12700
C1258       C  0.04308312  0.70025625  0.82211933     0.04600
C1259       C  0.97586344  0.68139605  0.88034693     0.27100
C1260       C  0.94252732  0.68054085  0.87283895    -0.13400
C1261       C  0.91912344  0.67532909  0.89603487     0.05200
C1262       C  0.92870475  0.67338600  0.92715890    -0.09400
C1263       C  0.96144738  0.67972563  0.93479305     0.06000
C1264       C  0.98523380  0.68199576  0.91152820    -0.13700
Br1265     Br  0.01081354  0.74738865  0.86210941    -0.05800
Br1266     Br  0.02718681  0.60273694  0.79430871    -0.00200
Br1267     Br  0.87443684  0.66938217  0.88469878     0.00300
Br1268     Br  0.03065339  0.68444769  0.92243335    -0.04100
Br1269     Br  0.06804195  0.73742764  0.80868362     0.00400
Br1270     Br  0.98014002  0.60998223  0.85556310    -0.03400
Br1271     Br  0.92935517  0.68560955  0.83048511    -0.04300
Br1272     Br  0.97315943  0.68859511  0.97680491    -0.00300
C1273       C  0.29524003  0.78441728  0.56907950     0.01100
C1274       C  0.28642740  0.79850802  0.59746103     0.03900
C1275       C  0.27116565  0.77942427  0.62018707    -0.12100
C1276       C  0.26496389  0.74607488  0.61474584     0.23200
C1277       C  0.27394626  0.73195892  0.58638330    -0.12700
C1278       C  0.28894219  0.75111925  0.56357216     0.04600
C1279       C  0.24649352  0.72673244  0.63781076     0.27100
C1280       C  0.26229643  0.71259682  0.66339624    -0.13400
C1281       C  0.24402792  0.69622666  0.68616310     0.05200
C1282       C  0.20983313  0.69400751  0.68340254    -0.09400
C1283       C  0.19442718  0.70718284  0.65713558     0.06000
C1284       C  0.21263759  0.72339057  0.63446270    -0.13700
Br1285     Br  0.26447703  0.68665903  0.57841196    -0.05800
Br1286     Br  0.29527874  0.84392414  0.60522720    -0.00200
Br1287     Br  0.26578496  0.67815832  0.72167636     0.00300
Br1288     Br  0.19118546  0.74123579  0.59860515    -0.04100
Br1289     Br  0.29932974  0.73217896  0.52409651     0.00400
Br1290     Br  0.25754103  0.79920753  0.65838958    -0.03400
Br1291     Br  0.30893531  0.71599435  0.66712494    -0.04300
Br1292     Br  0.14841277  0.70220432  0.65129631    -0.00300
C1293       C  0.19206390  0.71143757  0.81785668     0.01100
C1294       C  0.18428740  0.70404856  0.84867279     0.03900
C1295       C  0.19904927  0.72144797  0.87282867    -0.12100
C1296       C  0.22206126  0.74588238  0.86623276     0.23200
C1297       C  0.22878104  0.75417286  0.83539359    -0.12700
C1298       C  0.21371069  0.73705433  0.81124211     0.04600
C1299       C  0.24095177  0.76124169  0.89152498     0.27100
C1300       C  0.22906578  0.78917304  0.90664170    -0.13400
C1301       C  0.24768752  0.80430071  0.92979385     0.05200
C1302       C  0.27900277  0.79185559  0.93771704    -0.09400
C1303       C  0.28991813  0.76247984  0.92340421     0.06000
C1304       C  0.27104798  0.74765215  0.90026347    -0.13700
Br1305     Br  0.25885719  0.78890311  0.82643528    -0.05800
Br1306     Br  0.15440013  0.66914994  0.85772819    -0.00200
Br1307     Br  0.22825079  0.84055055  0.95180374     0.00300
Br1308     Br  0.28635272  0.70847036  0.87991588    -0.04100
Br1309     Br  0.22216540  0.74902366  0.76907363     0.00400
Br1310     Br  0.18802349  0.71179067  0.91499152    -0.03400
Br1311     Br  0.18691305  0.80651324  0.89545790    -0.04300
Br1312     Br  0.33045370  0.74135215  0.93458996    -0.00300
loop_ 
_geom_bond_atom_site_label_1 
_geom_bond_atom_site_label_2 
_geom_bond_distance 
_geom_bond_site_symmetry_2 
_ccdc_geom_bond_type 
O1          Cr19   2.012       .  S
O1            C9   1.264       .  A
O2          Cr19   1.968       .  S
O2            C3   1.261       .  A
C3            O4   1.272       .  A
C3          C546   1.486       .  S
O4          Cr20   2.031       .  S
O5          Cr20   1.985       .  S
O5            C6   1.260       .  A
C6            O7   1.267       .  A
C6          C626   1.486       .  S
O7          Cr21   2.015       .  S
O8          Cr21   1.984       .  S
O8            C9   1.260       .  A
C9          C577   1.494       .  S
O10         Cr19   1.965       .  S
O10          C18   1.258       .  A
O11         Cr19   2.002       .  S
O11          C12   1.262       .  A
C12          O13   1.260       .  A
C12         C566   1.484       .  S
O13         Cr20   1.991       .  S
O14         Cr20   2.017       .  S
O14          C15   1.269       .  A
C15          O16   1.260       .  A
C15         C637   1.476       .  S
O16         Cr21   1.975       .  S
O17         Cr21   2.029       .  S
O17          C18   1.266       .  A
C18         C597   1.491       .  S
Cr19         O22   1.765       .  S
Cr20         O22   1.778       .  S
Cr21         O22   1.775       .  S
O23         Cr41   1.987       .  S
O23          C31   1.258       .  A
O24         Cr41   1.967       .  S
O24          C25   1.259       .  A
C25          O26   1.269       .  A
C25         C477   1.474       .  S
O26        Cr698   2.019       .  S
O27        Cr698   1.984       .  S
O27          C28   1.260       .  A
C28          O29   1.264       .  A
C28         C646   1.502       .  S
O29         Cr43   2.011       .  S
O30         Cr43   1.990       .  S
O30          C31   1.262       .  A
C31         C526   1.498       .  S
O32        Cr697   1.971   1_554  S
O32          C40   1.263       .  A
O33        Cr697   1.997   1_554  S
O33          C34   1.262       .  A
C34          O35   1.260       .  A
C34         C466   1.492       .  S
O35         Cr42   1.996       .  S
O36         Cr42   2.015       .  S
O36          C37   1.268       .  A
C37          O38   1.259       .  A
C37         C617   1.476       .  S
O38        Cr699   1.972   1_554  S
O39        Cr699   2.008   1_554  S
O39          C40   1.265       .  A
C40         C497   1.475       .  S
Cr41        O688   1.971       .  S
Cr41        O689   1.997       .  S
Cr41         O44   1.765       .  S
Cr42        O682   2.019   1_554  S
Cr42        O683   1.984   1_554  S
Cr42        O700   1.766       .  S
Cr43        O694   1.972       .  S
Cr43        O695   2.008       .  S
Cr43         O44   1.774       .  S
O44        Cr698   1.766       .  S
O45         Cr63   1.983       .  S
O45          C53   1.260       .  A
O46         Cr63   2.022       .  S
O46          C47   1.268       .  A
C47          O48   1.259       .  A
C47         C606   1.489       .  S
O48         Cr64   1.986       .  S
O49         Cr64   2.024       .  S
O49          C50   1.271       .  A
C50          O51   1.262       .  A
C50         C426   1.496       .  S
O51         Cr65   1.978       .  S
O52         Cr65   2.008       .  S
O52          C53   1.262       .  A
C53         C397   1.476       .  S
O54        Cr719   2.028   1_554  S
O54          C62   1.272       .  A
O55        Cr719   1.961   1_554  S
O55          C56   1.256       .  A
C56          O57   1.269       .  A
C56         C586   1.482       .  S
O57        Cr720   2.025   1_554  S
O58        Cr720   1.980   1_554  S
O58          C59   1.257       .  A
C59          O60   1.262       .  A
C59         C437   1.472       .  S
O60        Cr721   2.007       .  S
O61        Cr721   1.979       .  S
O61          C62   1.262       .  A
C62         C377   1.489       .  S
Cr63        O710   2.028       .  S
Cr63        O711   1.961       .  S
Cr63         O66   1.769       .  S
Cr64        O713   2.025       .  S
Cr64        O714   1.980       .  S
Cr64         O66   1.775       .  S
Cr65        O716   2.007       .  S
Cr65        O717   1.979       .  S
Cr65         O66   1.776       .  S
O67         Cr85   1.972       .  S
O67          C75   1.259       .  A
O68         Cr85   1.994       .  S
O68          C69   1.261       .  A
C69          O70   1.261       .  A
C69         C506   1.473       .  S
O70         Cr86   1.981       .  S
O71         Cr86   2.008       .  S
O71          C72   1.265       .  A
C72          O73   1.260       .  A
C72         C446   1.485       .  S
O73         Cr87   1.979       .  S
O74         Cr87   2.017       .  S
O74          C75   1.266       .  A
C75         C337   1.478       .  S
O76         Cr85   1.999       .  S
O76          C84   1.263       .  A
O77         Cr85   1.972       .  S
O77          C78   1.261       .  A
C78          O79   1.264       .  A
C78         C517   1.476       .  S
O79         Cr86   2.008       .  S
O80         Cr86   1.978       .  S
O80          C81   1.260       .  A
C81          O82   1.266       .  A
C81         C417   1.474       .  S
O82         Cr87   2.012       .  S
O83         Cr87   1.986       .  S
O83          C84   1.262       .  A
C84         C357   1.481       .  S
Cr85         O88   1.765       .  S
Cr86         O88   1.773       .  S
Cr87         O88   1.772       .  S
O89        Cr763   1.963       .  S
O89          C97   1.257       .  A
O90        Cr763   2.010       .  S
O90          C91   1.264       .  A
C91          O92   1.262       .  A
C91         C537   1.494       .  S
O92        Cr764   1.993       .  S
O93        Cr764   2.010       .  S
O93          C94   1.266       .  A
C94          O95   1.261       .  A
C94         C297   1.484       .  S
O95        Cr765   1.980   1_554  S
O96        Cr765   2.013   1_554  S
O96          C97   1.264       .  A
C97         C257   1.466       .  S
O98        Cr107   2.004       .  S
O98         C106   1.263       .  A
O99        Cr107   1.968       .  S
O99         C100   1.258       .  A
C100        O101   1.265       .  A
C100        C557   1.470       .  S
O101       Cr108   2.010       .  S
O102       Cr108   1.994       .  S
O102        C103   1.263       .  A
C103        O104   1.266       .  A
C103        C317   1.496       .  S
O104       Cr109   2.013       .  S
O105       Cr109   1.985       .  S
O105        C106   1.261       .  A
C106        C286   1.484       .  S
Cr107       O745   1.963       .  S
Cr107       O746   2.010       .  S
Cr107       O110   1.771       .  S
Cr108       O748   1.993       .  S
Cr108       O749   2.010       .  S
Cr108       O110   1.775       .  S
Cr109       O751   1.980       .  S
Cr109       O752   2.013       .  S
Cr109       O110   1.778       .  S
O111       Cr129   1.970       .  S
O111        C119   1.258       .  A
O112       Cr129   1.999       .  S
O112        C113   1.260       .  A
C113        O114   1.261       .  A
C113        C217   1.489       .  S
O114       Cr130   1.991       .  S
O115       Cr130   2.010       .  S
O115        C116   1.266       .  A
C116        O117   1.261       .  A
C116        C306   1.480       .  S
O117       Cr131   1.979       .  S
O118       Cr131   2.016       .  S
O118        C119   1.266       .  A
C119        C457   1.474       .  S
O120       Cr129   2.001       .  S
O120        C128   1.261       .  A
O121       Cr129   1.963       .  S
O121        C122   1.257       .  A
C122        O123   1.266       .  A
C122        C237   1.471       .  S
O123       Cr130   2.017       .  S
O124       Cr130   1.991       .  S
O124        C125   1.263       .  A
C125        O126   1.265       .  A
C125        C326   1.484       .  S
O126       Cr131   2.007       .  S
O127       Cr131   1.983       .  S
O127        C128   1.259       .  A
C128        C486   1.480       .  S
Cr129       O132   1.772       .  S
Cr130       O132   1.780       .  S
Cr131       O132   1.780       .  S
O133       Cr151   1.996       .  S
O133        C141   1.257       .  A
O134       Cr151   1.968       .  S
O134        C135   1.259       .  A
C135        O136   1.266       .  A
C135        C366   1.469       .  S
O136       Cr808   2.014       .  S
O137       Cr808   1.991       .  S
O137        C138   1.262       .  A
C138        O139   1.267       .  A
C138        C197   1.491       .  S
O139       Cr809   2.012       .  S
O140       Cr809   1.984       .  S
O140        C141   1.260       .  A
C141        C246   1.484       .  S
O142       Cr807   1.971       .  S
O142        C150   1.261       .  A
O143       Cr807   2.000       .  S
O143        C144   1.262       .  A
C144        O145   1.261       .  A
C144        C346   1.491       .  S
O145       Cr152   1.995       .  S
O146       Cr152   2.010       .  S
O146        C147   1.267       .  A
C147        O148   1.263       .  A
C147        C177   1.487       .  S
O148       Cr153   1.988   1_554  S
O149       Cr153   2.023   1_554  S
O149        C150   1.269       .  A
C150        C226   1.476       .  S
Cr151       O798   1.971       .  S
Cr151       O799   2.000       .  S
Cr151       O810   1.774       .  S
Cr152       O792   2.014   1_554  S
Cr152       O793   1.991   1_554  S
Cr152       O154   1.779   1_554  S
Cr153       O795   2.012       .  S
Cr153       O796   1.984       .  S
Cr153       O154   1.777       .  S
O154       Cr807   1.774   1_556  S
O155       Cr173   1.993       .  S
O155        C163   1.258       .  A
O156       Cr173   1.972       .  S
O156        C157   1.261       .  A
C157        O158   1.269       .  A
C157        C277   1.480       .  S
O158       Cr174   2.022       .  S
O159       Cr174   1.979       .  S
O159        C160   1.261       .  A
C160        O161   1.268       .  A
C160        C206   1.482       .  S
O161       Cr175   2.016       .  S
O162       Cr175   1.996       .  S
O162        C163   1.261       .  A
C163        C406   1.489       .  S
O164       Cr173   1.967       .  S
O164        C172   1.260       .  A
O165       Cr173   1.997       .  S
O165        C166   1.259       .  A
C166        O167   1.256       .  A
C166        C266   1.480       .  S
O167       Cr174   1.979       .  S
O168       Cr174   2.006       .  S
O168        C169   1.265       .  A
C169        O170   1.262       .  A
C169        C186   1.485       .  S
O170       Cr175   1.987       .  S
O171       Cr175   2.025       .  S
O171        C172   1.271       .  A
C172        C386   1.479       .  S
Cr173       O176   1.772       .  S
Cr174       O176   1.773       .  S
Cr175       O176   1.774       .  S
C177        C178   1.413       .  A
C177        C182   1.413       .  A
C178        C179   1.409       .  A
C178       Br190   1.926       .  S
C179        C180   1.408       .  A
C179       Br194   1.931       .  S
C180        C183   1.492       .  S
C180        C181   1.411       .  A
C181        C182   1.413       .  A
C181       Br189   1.928       .  S
C182       Br193   1.930       .  S
C183        C184   1.410       .  A
C183        C188   1.410       .  A
C184        C185   1.410       .  A
C184       Br195   1.928       .  S
C185        C186   1.411       .  A
C185       Br191   1.930       .  S
C186        C187   1.413       .  A
C187        C188   1.411       .  A
C187       Br196   1.927       .  S
C188       Br192   1.930       .  S
C197        C198   1.414       .  A
C197        C202   1.415       .  A
C198        C199   1.413       .  A
C198       Br210   1.929       .  S
C199        C200   1.410       .  A
C199       Br214   1.928       .  S
C200        C203   1.492       .  S
C200        C201   1.407       .  A
C201        C202   1.409       .  A
C201       Br209   1.931       .  S
C202       Br213   1.923       .  S
C203        C204   1.410       .  A
C203        C208   1.411       .  A
C204        C205   1.409       .  A
C204       Br215   1.930       .  S
C205        C206   1.410       .  A
C205       Br211   1.926       .  S
C206        C207   1.412       .  A
C207        C208   1.412       .  A
C207       Br216   1.930       .  S
C208       Br212   1.928       .  S
C217        C218   1.418       .  A
C217        C222   1.415       .  A
C218        C219   1.407       .  A
C218       Br230   1.930       .  S
C219        C220   1.407       .  A
C219       Br234   1.934       .  S
C220        C223   1.489       .  S
C220        C221   1.409       .  A
C221        C222   1.411       .  A
C221       Br229   1.928       .  S
C222       Br233   1.930       .  S
C223        C224   1.411       .  A
C223        C228   1.411       .  A
C224        C225   1.407       .  A
C224       Br235   1.928       .  S
C225        C226   1.407       .  A
C225       Br231   1.930       .  S
C226        C227   1.412       .  A
C227        C228   1.410       .  A
C227       Br236   1.930       .  S
C228       Br232   1.930       .  S
C237        C238   1.408       .  A
C237        C242   1.408       .  A
C238        C239   1.406       .  A
C238       Br250   1.925       .  S
C239        C240   1.409       .  A
C239       Br254   1.930       .  S
C240        C243   1.481       .  S
C240        C241   1.409       .  A
C241        C242   1.407       .  A
C241       Br249   1.929       .  S
C242       Br253   1.929       .  S
C243        C244   1.407       .  A
C243        C248   1.406       .  A
C244        C245   1.408       .  A
C244       Br255   1.930       .  S
C245        C246   1.414       .  A
C245       Br251   1.931       .  S
C246        C247   1.418       .  A
C247        C248   1.406       .  A
C247       Br256   1.931       .  S
C248       Br252   1.933       .  S
C257        C258   1.408       .  A
C257        C262   1.407       .  A
C258        C259   1.406   1_455  A
C258       Br270   1.930       .  S
C259        C260   1.409   1_655  A
C259       Br274   1.930       .  S
C260        C263   1.478   1_455  S
C260        C261   1.408       .  A
C261        C262   1.404       .  A
C261       Br269   1.930       .  S
C262       Br273   1.929       .  S
C263        C264   1.406       .  A
C263        C268   1.405       .  A
C264        C265   1.405       .  A
C264       Br275   1.934       .  S
C265        C266   1.417       .  A
C265       Br271   1.933       .  S
C266        C267   1.415       .  A
C267        C268   1.405       .  A
C267       Br276   1.932       .  S
C268       Br272   1.928       .  S
C277        C278   1.412       .  A
C277        C282   1.414       .  A
C278        C279   1.407       .  A
C278       Br290   1.929       .  S
C279        C280   1.409       .  A
C279       Br294   1.930       .  S
C280        C283   1.485   1_655  S
C280        C281   1.408       .  A
C281        C282   1.409       .  A
C281       Br289   1.931   1_655  S
C282       Br293   1.931       .  S
C283        C284   1.407       .  A
C283        C288   1.408       .  A
C284        C285   1.405       .  A
C284       Br295   1.934       .  S
C285        C286   1.414       .  A
C285       Br291   1.929       .  S
C286        C287   1.415       .  A
C287        C288   1.411       .  A
C287       Br296   1.931       .  S
C288       Br292   1.929   1_455  S
C297        C298   1.414       .  A
C297        C302   1.414       .  A
C298        C299   1.406       .  A
C298       Br310   1.926       .  S
C299        C300   1.407       .  A
C299       Br314   1.932       .  S
C300        C303   1.486       .  S
C300        C301   1.409       .  A
C301        C302   1.410       .  A
C301       Br309   1.929       .  S
C302       Br313   1.931       .  S
C303        C304   1.410       .  A
C303        C308   1.408       .  A
C304        C305   1.409       .  A
C304       Br315   1.931       .  S
C305        C306   1.413       .  A
C305       Br311   1.927       .  S
C306        C307   1.410       .  A
C307        C308   1.408       .  A
C307       Br316   1.929       .  S
C308       Br312   1.929       .  S
C317        C318   1.416       .  A
C317        C322   1.417       .  A
C318        C319   1.413       .  A
C318       Br330   1.929       .  S
C319        C320   1.409       .  A
C319       Br334   1.929       .  S
C320        C323   1.496       .  S
C320        C321   1.410       .  A
C321        C322   1.412       .  A
C321       Br329   1.933       .  S
C322       Br333   1.929       .  S
C323        C324   1.412       .  A
C323        C328   1.410       .  A
C324        C325   1.411       .  A
C324       Br335   1.928       .  S
C325        C326   1.410       .  A
C325       Br331   1.930       .  S
C326        C327   1.413       .  A
C327        C328   1.411       .  A
C327       Br336   1.927       .  S
C328       Br332   1.931       .  S
C337        C338   1.410       .  A
C337        C342   1.411       .  A
C338        C339   1.408       .  A
C338       Br350   1.932       .  S
C339        C340   1.410       .  A
C339       Br354   1.928       .  S
C340        C343   1.490   1_565  S
C340        C341   1.411       .  A
C341        C342   1.410       .  A
C341       Br349   1.929   1_565  S
C342       Br353   1.930       .  S
C343        C344   1.409       .  A
C343        C348   1.407       .  A
C344        C345   1.414       .  A
C344       Br355   1.928   1_545  S
C345        C346   1.417       .  A
C345       Br351   1.930       .  S
C346        C347   1.417       .  A
C347        C348   1.407       .  A
C347       Br356   1.931       .  S
C348       Br352   1.934       .  S
C357        C358   1.415       .  A
C357        C362   1.415       .  A
C358        C359   1.409       .  A
C358       Br370   1.930       .  S
C359        C360   1.407       .  A
C359       Br374   1.928       .  S
C360        C363   1.480       .  S
C360        C361   1.406       .  A
C361        C362   1.403       .  A
C361       Br369   1.934       .  S
C362       Br373   1.929       .  S
C363        C364   1.409       .  A
C363        C368   1.408   1_565  A
C364        C365   1.406   1_565  A
C364       Br375   1.930       .  S
C365        C366   1.409       .  A
C365       Br371   1.931       .  S
C366        C367   1.408       .  A
C367        C368   1.405       .  A
C367       Br376   1.930       .  S
C368       Br372   1.930       .  S
C377        C378   1.415       .  A
C377        C382   1.416       .  A
C378        C379   1.409       .  A
C378       Br390   1.925       .  S
C379        C380   1.408       .  A
C379       Br394   1.932       .  S
C380        C383   1.488       .  S
C380        C381   1.407       .  A
C381        C382   1.411       .  A
C381       Br389   1.930       .  S
C382       Br393   1.930       .  S
C383        C384   1.409       .  A
C383        C388   1.410       .  A
C384        C385   1.406       .  A
C384       Br395   1.930       .  S
C385        C386   1.411       .  A
C385       Br391   1.932       .  S
C386        C387   1.414       .  A
C387        C388   1.411       .  A
C387       Br396   1.932       .  S
C388       Br392   1.929       .  S
C397        C398   1.407       .  A
C397        C402   1.411       .  A
C398        C399   1.405       .  A
C398       Br410   1.922       .  S
C399        C400   1.408       .  A
C399       Br414   1.929       .  S
C400        C403   1.483       .  S
C400        C401   1.409       .  A
C401        C402   1.408       .  A
C401       Br409   1.929       .  S
C402       Br413   1.929       .  S
C403        C404   1.407       .  A
C403        C408   1.404       .  A
C404        C405   1.412       .  A
C404       Br415   1.929       .  S
C405        C406   1.418       .  A
C405       Br411   1.931       .  S
C406        C407   1.420       .  A
C407        C408   1.404       .  A
C407       Br416   1.934       .  S
C408       Br412   1.935       .  S
C417        C418   1.409       .  A
C417        C422   1.409       .  A
C418        C419   1.409       .  A
C418       Br430   1.931       .  S
C419        C420   1.411       .  A
C419       Br434   1.928       .  S
C420        C423   1.488       .  S
C420        C421   1.410       .  A
C421        C422   1.408       .  A
C421       Br429   1.929       .  S
C422       Br433   1.930       .  S
C423        C424   1.407       .  A
C423        C428   1.406       .  A
C424        C425   1.409       .  A
C424       Br435   1.932       .  S
C425        C426   1.419       .  A
C425       Br431   1.932       .  S
C426        C427   1.422       .  A
C427        C428   1.411       .  A
C427       Br436   1.933       .  S
C428       Br432   1.931       .  S
C437        C438   1.410       .  A
C437        C442   1.408       .  A
C438        C439   1.407       .  A
C438       Br450   1.929       .  S
C439        C440   1.409       .  A
C439       Br454   1.930       .  S
C440        C443   1.484       .  S
C440        C441   1.410       .  A
C441        C442   1.408       .  A
C441       Br449   1.929       .  S
C442       Br453   1.929       .  S
C443        C444   1.407       .  A
C443        C448   1.407       .  A
C444        C445   1.408       .  A
C444       Br455   1.930       .  S
C445        C446   1.416       .  A
C445       Br451   1.932       .  S
C446        C447   1.417       .  A
C447        C448   1.407       .  A
C447       Br456   1.931       .  S
C448       Br452   1.932       .  S
C457        C458   1.409       .  A
C457        C462   1.408       .  A
C458        C459   1.408       .  A
C458       Br470   1.927       .  S
C459        C460   1.409       .  A
C459       Br474   1.928       .  S
C460        C463   1.486   1_545  S
C460        C461   1.411       .  A
C461        C462   1.408       .  A
C461       Br469   1.929   1_545  S
C462       Br473   1.929       .  S
C463        C464   1.407       .  A
C463        C468   1.406       .  A
C464        C465   1.412       .  A
C464       Br475   1.929       .  S
C465        C466   1.419       .  A
C465       Br471   1.931       .  S
C466        C467   1.420       .  A
C467        C468   1.406       .  A
C467       Br476   1.934       .  S
C468       Br472   1.934   1_565  S
C477        C478   1.411       .  A
C477        C482   1.410       .  A
C478        C479   1.407       .  A
C478       Br490   1.931       .  S
C479        C480   1.409       .  A
C479       Br494   1.930   1_565  S
C480        C483   1.481   1_565  S
C480        C481   1.408       .  A
C481        C482   1.405       .  A
C481       Br489   1.931       .  S
C482       Br493   1.926       .  S
C483        C484   1.408       .  A
C483        C488   1.406       .  A
C484        C485   1.409       .  A
C484       Br495   1.929   1_545  S
C485        C486   1.412       .  A
C485       Br491   1.930       .  S
C486        C487   1.414       .  A
C487        C488   1.404       .  A
C487       Br496   1.925       .  S
C488       Br492   1.934       .  S
C497        C498   1.412       .  A
C497        C502   1.414       .  A
C498        C499   1.404       .  A
C498       Br510   1.929       .  S
C499        C500   1.406       .  A
C499       Br514   1.931       .  S
C500        C503   1.474       .  S
C500        C501   1.405       .  A
C501        C502   1.404       .  A
C501       Br509   1.931       .  S
C502       Br513   1.927       .  S
C503        C504   1.406       .  A
C503        C508   1.406       .  A
C504        C505   1.402       .  A
C504       Br515   1.933       .  S
C505        C506   1.414       .  A
C505       Br511   1.929       .  S
C506        C507   1.413       .  A
C507        C508   1.406       .  A
C507       Br516   1.930       .  S
C508       Br512   1.929       .  S
C517        C518   1.412       .  A
C517        C522   1.414       .  A
C518        C519   1.403       .  A
C518       Br530   1.932       .  S
C519        C520   1.407       .  A
C519       Br534   1.932       .  S
C520        C523   1.479       .  S
C520        C521   1.407       .  A
C521        C522   1.408       .  A
C521       Br529   1.929       .  S
C522       Br533   1.929       .  S
C523        C524   1.402       .  A
C523        C528   1.403       .  A
C524        C525   1.405       .  A
C524       Br535   1.939       .  S
C525        C526   1.429       .  A
C525       Br531   1.938       .  S
C526        C527   1.423       .  A
C527        C528   1.409       .  A
C527       Br536   1.930       .  S
C528       Br532   1.931       .  S
C537        C538   1.418       .  A
C537        C542   1.415       .  A
C538        C539   1.411       .  A
C538       Br550   1.927       .  S
C539        C540   1.408       .  A
C539       Br554   1.932       .  S
C540        C543   1.493       .  S
C540        C541   1.409       .  A
C541        C542   1.413       .  A
C541       Br549   1.928       .  S
C542       Br553   1.929       .  S
C543        C544   1.409       .  A
C543        C548   1.411       .  A
C544        C545   1.408       .  A
C544       Br555   1.930       .  S
C545        C546   1.412       .  A
C545       Br551   1.932       .  S
C546        C547   1.414       .  A
C547        C548   1.414       .  A
C547       Br556   1.928       .  S
C548       Br552   1.929       .  S
C557        C558   1.408       .  A
C557        C562   1.408       .  A
C558        C559   1.407       .  A
C558       Br570   1.931       .  S
C559        C560   1.412       .  A
C559       Br574   1.931       .  S
C560        C563   1.487       .  S
C560        C561   1.412       .  A
C561        C562   1.407       .  A
C561       Br569   1.930       .  S
C562       Br573   1.932       .  S
C563        C564   1.408       .  A
C563        C568   1.411       .  A
C564        C565   1.405       .  A
C564       Br575   1.934       .  S
C565        C566   1.412       .  A
C565       Br571   1.923       .  S
C566        C567   1.412       .  A
C567        C568   1.411       .  A
C567       Br576   1.928       .  S
C568       Br572   1.930       .  S
C577        C578   1.418       .  A
C577        C582   1.418       .  A
C578        C579   1.408       .  A
C578       Br590   1.935       .  S
C579        C580   1.412       .  A
C579       Br594   1.936   1_455  S
C580        C583   1.495   1_455  S
C580        C581   1.411       .  A
C581        C582   1.411       .  A
C581       Br589   1.931       .  S
C582       Br593   1.933       .  S
C583        C584   1.411       .  A
C583        C588   1.414       .  A
C584        C585   1.408       .  A
C584       Br595   1.933   1_655  S
C585        C586   1.414       .  A
C585       Br591   1.933       .  S
C586        C587   1.410       .  A
C587        C588   1.411       .  A
C587       Br596   1.929       .  S
C588       Br592   1.931       .  S
C597        C598   1.415       .  A
C597        C602   1.418       .  A
C598        C599   1.404       .  A
C598       Br610   1.937       .  S
C599        C600   1.409       .  A
C599       Br614   1.933   1_455  S
C600        C603   1.491   1_455  S
C600        C601   1.411       .  A
C601        C602   1.415       .  A
C601       Br609   1.929       .  S
C602       Br613   1.930       .  S
C603        C604   1.409       .  A
C603        C608   1.409       .  A
C604        C605   1.410       .  A
C604       Br615   1.930       .  S
C605        C606   1.411       .  A
C605       Br611   1.919       .  S
C606        C607   1.412       .  A
C607        C608   1.409       .  A
C607       Br616   1.924       .  S
C608       Br612   1.929   1_655  S
C617        C618   1.408       .  A
C617        C622   1.410       .  A
C618        C619   1.408       .  A
C618       Br630   1.927       .  S
C619        C620   1.411       .  A
C619       Br634   1.929       .  S
C620        C623   1.488       .  S
C620        C621   1.410       .  A
C621        C622   1.408       .  A
C621       Br629   1.929       .  S
C622       Br633   1.930       .  S
C623        C624   1.410       .  A
C623        C628   1.407       .  A
C624        C625   1.413       .  A
C624       Br635   1.930       .  S
C625        C626   1.414       .  A
C625       Br631   1.929       .  S
C626        C627   1.411       .  A
C627        C628   1.406       .  A
C627       Br636   1.920       .  S
C628       Br632   1.932       .  S
C637        C638   1.410       .  A
C637        C642   1.409       .  A
C638        C639   1.409       .  A
C638       Br650   1.930       .  S
C639        C640   1.410       .  A
C639       Br654   1.929       .  S
C640        C643   1.488       .  S
C640        C641   1.410       .  A
C641        C642   1.408       .  A
C641       Br649   1.929       .  S
C642       Br653   1.929       .  S
C643        C644   1.405       .  A
C643        C648   1.406       .  A
C644        C645   1.410       .  A
C644       Br655   1.931       .  S
C645        C646   1.424       .  A
C645       Br651   1.935       .  S
C646        C647   1.425       .  A
C647        C648   1.410       .  A
C647       Br656   1.935       .  S
C648       Br652   1.935       .  S
O657       Cr675   2.012       .  S
O657        C665   1.264       .  A
O658       Cr675   1.968       .  S
O658        C659   1.261       .  A
C659        O660   1.272       .  A
C659       C1202   1.486       .  S
O660       Cr676   2.031       .  S
O661       Cr676   1.985       .  S
O661        C662   1.260       .  A
C662        O663   1.267       .  A
C662       C1282   1.486       .  S
O663       Cr677   2.015       .  S
O664       Cr677   1.984       .  S
O664        C665   1.260       .  A
C665       C1233   1.494       .  S
O666       Cr675   1.965       .  S
O666        C674   1.258       .  A
O667       Cr675   2.002       .  S
O667        C668   1.262       .  A
C668        O669   1.260       .  A
C668       C1222   1.484       .  S
O669       Cr676   1.991       .  S
O670       Cr676   2.017       .  S
O670        C671   1.269       .  A
C671        O672   1.260       .  A
C671       C1293   1.476       .  S
O672       Cr677   1.975       .  S
O673       Cr677   2.029       .  S
O673        C674   1.266       .  A
C674       C1253   1.491       .  S
Cr675       O678   1.765       .  S
Cr676       O678   1.778       .  S
Cr677       O678   1.775       .  S
O679       Cr697   1.987       .  S
O679        C687   1.258       .  A
O680       Cr697   1.967       .  S
O680        C681   1.259       .  A
C681        O682   1.269       .  A
C681       C1133   1.474       .  S
O683        C684   1.260       .  A
C684        O685   1.264       .  A
C684       C1302   1.502       .  S
O685       Cr699   2.011       .  S
O686       Cr699   1.990       .  S
O686        C687   1.262       .  A
C687       C1182   1.498       .  S
O688        C696   1.263       .  A
O689        C690   1.262       .  A
C690        O691   1.260       .  A
C690       C1122   1.492       .  S
O691       Cr698   1.996       .  S
O692       Cr698   2.015       .  S
O692        C693   1.268       .  A
C693        O694   1.259       .  A
C693       C1273   1.476       .  S
O695        C696   1.265       .  A
C696       C1153   1.475       .  S
Cr697       O700   1.765   1_556  S
Cr699       O700   1.774   1_556  S
O701       Cr719   1.983       .  S
O701        C709   1.260       .  A
O702       Cr719   2.022       .  S
O702        C703   1.268       .  A
C703        O704   1.259       .  A
C703       C1262   1.489       .  S
O704       Cr720   1.986       .  S
O705       Cr720   2.024       .  S
O705        C706   1.271       .  A
C706        O707   1.262       .  A
C706       C1082   1.496       .  S
O707       Cr721   1.978   1_556  S
O708       Cr721   2.008   1_556  S
O708        C709   1.262       .  A
C709       C1053   1.476       .  S
O710        C718   1.272       .  A
O711        C712   1.256       .  A
C712        O713   1.269       .  A
C712       C1242   1.482       .  S
O714        C715   1.257       .  A
C715        O716   1.262       .  A
C715       C1093   1.472       .  S
O717        C718   1.262       .  A
C718       C1033   1.489       .  S
Cr719       O722   1.769       .  S
Cr720       O722   1.775       .  S
Cr721       O722   1.776   1_554  S
O723       Cr741   1.972       .  S
O723        C731   1.259       .  A
O724       Cr741   1.994       .  S
O724        C725   1.261       .  A
C725        O726   1.261       .  A
C725       C1162   1.473       .  S
O726       Cr742   1.981       .  S
O727       Cr742   2.008       .  S
O727        C728   1.265       .  A
C728        O729   1.260       .  A
C728       C1102   1.485       .  S
O729       Cr743   1.979       .  S
O730       Cr743   2.017       .  S
O730        C731   1.266       .  A
C731        C993   1.478       .  S
O732       Cr741   1.999       .  S
O732        C740   1.263       .  A
O733       Cr741   1.972       .  S
O733        C734   1.261       .  A
C734        O735   1.264       .  A
C734       C1173   1.476       .  S
O735       Cr742   2.008       .  S
O736       Cr742   1.978       .  S
O736        C737   1.260       .  A
C737        O738   1.266       .  A
C737       C1073   1.474       .  S
O738       Cr743   2.012       .  S
O739       Cr743   1.986       .  S
O739        C740   1.262       .  A
C740       C1013   1.481       .  S
Cr741       O744   1.765       .  S
Cr742       O744   1.773       .  S
Cr743       O744   1.772       .  S
O745        C753   1.257       .  A
O746        C747   1.264       .  A
C747        O748   1.262       .  A
C747       C1193   1.494       .  S
O749        C750   1.266       .  A
C750        O751   1.261       .  A
C750        C953   1.484       .  S
O752        C753   1.264       .  A
C753        C913   1.466       .  S
O754       Cr763   2.004   1_556  S
O754        C762   1.263       .  A
O755       Cr763   1.968   1_556  S
O755        C756   1.258       .  A
C756        O757   1.265       .  A
C756       C1213   1.470       .  S
O757       Cr764   2.010   1_556  S
O758       Cr764   1.994   1_556  S
O758        C759   1.263       .  A
C759        O760   1.266       .  A
C759        C973   1.496       .  S
O760       Cr765   2.013       .  S
O761       Cr765   1.985       .  S
O761        C762   1.261       .  A
C762        C942   1.484       .  S
Cr763       O766   1.771       .  S
Cr764       O766   1.775       .  S
Cr765       O766   1.778   1_556  S
O767       Cr785   1.970       .  S
O767        C775   1.258       .  A
O768       Cr785   1.999       .  S
O768        C769   1.260       .  A
C769        O770   1.261       .  A
C769        C873   1.489       .  S
O770       Cr786   1.991       .  S
O771       Cr786   2.010       .  S
O771        C772   1.266       .  A
C772        O773   1.261       .  A
C772        C962   1.480       .  S
O773       Cr787   1.979       .  S
O774       Cr787   2.016       .  S
O774        C775   1.266       .  A
C775       C1113   1.474       .  S
O776       Cr785   2.001       .  S
O776        C784   1.261       .  A
O777       Cr785   1.963       .  S
O777        C778   1.257       .  A
C778        O779   1.266       .  A
C778        C893   1.471       .  S
O779       Cr786   2.017       .  S
O780       Cr786   1.991       .  S
O780        C781   1.263       .  A
C781        O782   1.265       .  A
C781        C982   1.484       .  S
O782       Cr787   2.007       .  S
O783       Cr787   1.983       .  S
O783        C784   1.259       .  A
C784       C1142   1.480       .  S
Cr785       O788   1.772       .  S
Cr786       O788   1.780       .  S
Cr787       O788   1.780       .  S
O789       Cr807   1.996   1_556  S
O789        C797   1.257       .  A
O790       Cr807   1.968   1_556  S
O790        C791   1.259       .  A
C791        O792   1.266       .  A
C791       C1022   1.469       .  S
O793        C794   1.262       .  A
C794        O795   1.267       .  A
C794        C853   1.491       .  S
O796        C797   1.260       .  A
C797        C902   1.484       .  S
O798        C806   1.261       .  A
O799        C800   1.262       .  A
C800        O801   1.261       .  A
C800       C1002   1.491       .  S
O801       Cr808   1.995       .  S
O802       Cr808   2.010       .  S
O802        C803   1.267       .  A
C803        O804   1.263       .  A
C803        C833   1.487       .  S
O804       Cr809   1.988       .  S
O805       Cr809   2.023       .  S
O805        C806   1.269       .  A
C806        C882   1.476       .  S
Cr808       O810   1.779       .  S
Cr809       O810   1.777       .  S
O811       Cr829   1.993       .  S
O811        C819   1.258       .  A
O812       Cr829   1.972       .  S
O812        C813   1.261       .  A
C813        O814   1.269       .  A
C813        C933   1.480       .  S
O814       Cr830   2.022       .  S
O815       Cr830   1.979       .  S
O815        C816   1.261       .  A
C816        O817   1.268       .  A
C816        C862   1.482       .  S
O817       Cr831   2.016       .  S
O818       Cr831   1.996       .  S
O818        C819   1.261       .  A
C819       C1062   1.489       .  S
O820       Cr829   1.967       .  S
O820        C828   1.260       .  A
O821       Cr829   1.997       .  S
O821        C822   1.259       .  A
C822        O823   1.256       .  A
C822        C922   1.480       .  S
O823       Cr830   1.979       .  S
O824       Cr830   2.006       .  S
O824        C825   1.265       .  A
C825        O826   1.262       .  A
C825        C842   1.485       .  S
O826       Cr831   1.987       .  S
O827       Cr831   2.025       .  S
O827        C828   1.271       .  A
C828       C1042   1.479       .  S
Cr829       O832   1.772       .  S
Cr830       O832   1.773       .  S
Cr831       O832   1.774       .  S
C833        C834   1.413       .  A
C833        C838   1.413       .  A
C834        C835   1.409       .  A
C834       Br846   1.926       .  S
C835        C836   1.408       .  A
C835       Br850   1.931       .  S
C836        C839   1.492       .  S
C836        C837   1.411       .  A
C837        C838   1.413       .  A
C837       Br845   1.928       .  S
C838       Br849   1.930       .  S
C839        C840   1.410       .  A
C839        C844   1.410       .  A
C840        C841   1.410       .  A
C840       Br851   1.928       .  S
C841        C842   1.411       .  A
C841       Br847   1.930       .  S
C842        C843   1.413       .  A
C843        C844   1.411       .  A
C843       Br852   1.927       .  S
C844       Br848   1.930       .  S
C853        C854   1.414       .  A
C853        C858   1.415       .  A
C854        C855   1.413       .  A
C854       Br866   1.929       .  S
C855        C856   1.410       .  A
C855       Br870   1.928       .  S
C856        C859   1.492       .  S
C856        C857   1.407       .  A
C857        C858   1.409       .  A
C857       Br865   1.931       .  S
C858       Br869   1.923       .  S
C859        C860   1.410       .  A
C859        C864   1.411       .  A
C860        C861   1.409       .  A
C860       Br871   1.930       .  S
C861        C862   1.410       .  A
C861       Br867   1.926       .  S
C862        C863   1.412       .  A
C863        C864   1.412       .  A
C863       Br872   1.930       .  S
C864       Br868   1.928       .  S
C873        C874   1.418       .  A
C873        C878   1.415       .  A
C874        C875   1.407       .  A
C874       Br886   1.930       .  S
C875        C876   1.407       .  A
C875       Br890   1.934       .  S
C876        C879   1.489       .  S
C876        C877   1.409       .  A
C877        C878   1.411       .  A
C877       Br885   1.928       .  S
C878       Br889   1.930       .  S
C879        C880   1.411       .  A
C879        C884   1.411       .  A
C880        C881   1.407       .  A
C880       Br891   1.928       .  S
C881        C882   1.407       .  A
C881       Br887   1.930       .  S
C882        C883   1.412       .  A
C883        C884   1.410       .  A
C883       Br892   1.930       .  S
C884       Br888   1.930       .  S
C893        C894   1.408       .  A
C893        C898   1.408       .  A
C894        C895   1.406       .  A
C894       Br906   1.925       .  S
C895        C896   1.409       .  A
C895       Br910   1.930       .  S
C896        C899   1.481       .  S
C896        C897   1.409       .  A
C897        C898   1.407       .  A
C897       Br905   1.929       .  S
C898       Br909   1.929       .  S
C899        C900   1.407       .  A
C899        C904   1.406       .  A
C900        C901   1.408       .  A
C900       Br911   1.930       .  S
C901        C902   1.414       .  A
C901       Br907   1.931       .  S
C902        C903   1.418       .  A
C903        C904   1.406       .  A
C903       Br912   1.931       .  S
C904       Br908   1.933       .  S
C913        C914   1.408       .  A
C913        C918   1.407       .  A
C914        C915   1.406   1_455  A
C914       Br926   1.930       .  S
C915        C916   1.409   1_655  A
C915       Br930   1.930       .  S
C916        C919   1.478   1_455  S
C916        C917   1.408       .  A
C917        C918   1.404       .  A
C917       Br925   1.930       .  S
C918       Br929   1.929       .  S
C919        C920   1.406       .  A
C919        C924   1.405       .  A
C920        C921   1.405       .  A
C920       Br931   1.934       .  S
C921        C922   1.417       .  A
C921       Br927   1.933       .  S
C922        C923   1.415       .  A
C923        C924   1.405       .  A
C923       Br932   1.932       .  S
C924       Br928   1.928       .  S
C933        C934   1.412       .  A
C933        C938   1.414       .  A
C934        C935   1.407       .  A
C934       Br946   1.929       .  S
C935        C936   1.409       .  A
C935       Br950   1.930       .  S
C936        C939   1.485   1_655  S
C936        C937   1.408       .  A
C937        C938   1.409       .  A
C937       Br945   1.931   1_655  S
C938       Br949   1.931       .  S
C939        C940   1.407       .  A
C939        C944   1.408       .  A
C940        C941   1.405       .  A
C940       Br951   1.934       .  S
C941        C942   1.414       .  A
C941       Br947   1.929       .  S
C942        C943   1.415       .  A
C943        C944   1.411       .  A
C943       Br952   1.931       .  S
C944       Br948   1.929   1_455  S
C953        C954   1.414       .  A
C953        C958   1.414       .  A
C954        C955   1.406       .  A
C954       Br966   1.926       .  S
C955        C956   1.407       .  A
C955       Br970   1.932       .  S
C956        C959   1.486       .  S
C956        C957   1.409       .  A
C957        C958   1.410       .  A
C957       Br965   1.929       .  S
C958       Br969   1.931       .  S
C959        C960   1.410       .  A
C959        C964   1.408       .  A
C960        C961   1.409       .  A
C960       Br971   1.931       .  S
C961        C962   1.413       .  A
C961       Br967   1.927       .  S
C962        C963   1.410       .  A
C963        C964   1.408       .  A
C963       Br972   1.929       .  S
C964       Br968   1.929       .  S
C973        C974   1.416       .  A
C973        C978   1.417       .  A
C974        C975   1.413       .  A
C974       Br986   1.929       .  S
C975        C976   1.409       .  A
C975       Br990   1.929       .  S
C976        C979   1.496       .  S
C976        C977   1.410       .  A
C977        C978   1.412       .  A
C977       Br985   1.933       .  S
C978       Br989   1.929       .  S
C979        C980   1.412       .  A
C979        C984   1.410       .  A
C980        C981   1.411       .  A
C980       Br991   1.928       .  S
C981        C982   1.410       .  A
C981       Br987   1.930       .  S
C982        C983   1.413       .  A
C983        C984   1.411       .  A
C983       Br992   1.927       .  S
C984       Br988   1.931       .  S
C993        C994   1.410       .  A
C993        C998   1.411       .  A
C994        C995   1.408       .  A
C994      Br1006   1.932       .  S
C995        C996   1.410       .  A
C995      Br1010   1.928       .  S
C996        C999   1.490   1_565  S
C996        C997   1.411       .  A
C997        C998   1.410       .  A
C997      Br1005   1.929   1_565  S
C998      Br1009   1.930       .  S
C999       C1000   1.409       .  A
C999       C1004   1.407       .  A
C1000      C1001   1.414       .  A
C1000     Br1011   1.928   1_545  S
C1001      C1002   1.417       .  A
C1001     Br1007   1.930       .  S
C1002      C1003   1.417       .  A
C1003      C1004   1.407       .  A
C1003     Br1012   1.931       .  S
C1004     Br1008   1.934       .  S
C1013      C1014   1.415       .  A
C1013      C1018   1.415       .  A
C1014      C1015   1.409       .  A
C1014     Br1026   1.930       .  S
C1015      C1016   1.407       .  A
C1015     Br1030   1.928       .  S
C1016      C1019   1.480       .  S
C1016      C1017   1.406       .  A
C1017      C1018   1.403       .  A
C1017     Br1025   1.934       .  S
C1018     Br1029   1.929       .  S
C1019      C1020   1.409       .  A
C1019      C1024   1.408   1_565  A
C1020      C1021   1.406   1_565  A
C1020     Br1031   1.930       .  S
C1021      C1022   1.409       .  A
C1021     Br1027   1.931       .  S
C1022      C1023   1.408       .  A
C1023      C1024   1.405       .  A
C1023     Br1032   1.930       .  S
C1024     Br1028   1.930       .  S
C1033      C1034   1.415       .  A
C1033      C1038   1.416       .  A
C1034      C1035   1.409       .  A
C1034     Br1046   1.925       .  S
C1035      C1036   1.408       .  A
C1035     Br1050   1.932       .  S
C1036      C1039   1.488       .  S
C1036      C1037   1.407       .  A
C1037      C1038   1.411       .  A
C1037     Br1045   1.930       .  S
C1038     Br1049   1.930       .  S
C1039      C1040   1.409       .  A
C1039      C1044   1.410       .  A
C1040      C1041   1.406       .  A
C1040     Br1051   1.930       .  S
C1041      C1042   1.411       .  A
C1041     Br1047   1.932       .  S
C1042      C1043   1.414       .  A
C1043      C1044   1.411       .  A
C1043     Br1052   1.932       .  S
C1044     Br1048   1.929       .  S
C1053      C1054   1.407       .  A
C1053      C1058   1.411       .  A
C1054      C1055   1.405       .  A
C1054     Br1066   1.922       .  S
C1055      C1056   1.408       .  A
C1055     Br1070   1.929       .  S
C1056      C1059   1.483       .  S
C1056      C1057   1.409       .  A
C1057      C1058   1.408       .  A
C1057     Br1065   1.929       .  S
C1058     Br1069   1.929       .  S
C1059      C1060   1.407       .  A
C1059      C1064   1.404       .  A
C1060      C1061   1.412       .  A
C1060     Br1071   1.929       .  S
C1061      C1062   1.418       .  A
C1061     Br1067   1.931       .  S
C1062      C1063   1.420       .  A
C1063      C1064   1.404       .  A
C1063     Br1072   1.934       .  S
C1064     Br1068   1.935       .  S
C1073      C1074   1.409       .  A
C1073      C1078   1.409       .  A
C1074      C1075   1.409       .  A
C1074     Br1086   1.931       .  S
C1075      C1076   1.411       .  A
C1075     Br1090   1.928       .  S
C1076      C1079   1.488       .  S
C1076      C1077   1.410       .  A
C1077      C1078   1.408       .  A
C1077     Br1085   1.929       .  S
C1078     Br1089   1.930       .  S
C1079      C1080   1.407       .  A
C1079      C1084   1.406       .  A
C1080      C1081   1.409       .  A
C1080     Br1091   1.932       .  S
C1081      C1082   1.419       .  A
C1081     Br1087   1.932       .  S
C1082      C1083   1.422       .  A
C1083      C1084   1.411       .  A
C1083     Br1092   1.933       .  S
C1084     Br1088   1.931       .  S
C1093      C1094   1.410       .  A
C1093      C1098   1.408       .  A
C1094      C1095   1.407       .  A
C1094     Br1106   1.929       .  S
C1095      C1096   1.409       .  A
C1095     Br1110   1.930       .  S
C1096      C1099   1.484       .  S
C1096      C1097   1.410       .  A
C1097      C1098   1.408       .  A
C1097     Br1105   1.929       .  S
C1098     Br1109   1.929       .  S
C1099      C1100   1.407       .  A
C1099      C1104   1.407       .  A
C1100      C1101   1.408       .  A
C1100     Br1111   1.930       .  S
C1101      C1102   1.416       .  A
C1101     Br1107   1.932       .  S
C1102      C1103   1.417       .  A
C1103      C1104   1.407       .  A
C1103     Br1112   1.931       .  S
C1104     Br1108   1.932       .  S
C1113      C1114   1.409       .  A
C1113      C1118   1.408       .  A
C1114      C1115   1.408       .  A
C1114     Br1126   1.927       .  S
C1115      C1116   1.409       .  A
C1115     Br1130   1.928       .  S
C1116      C1119   1.486   1_545  S
C1116      C1117   1.411       .  A
C1117      C1118   1.408       .  A
C1117     Br1125   1.929   1_545  S
C1118     Br1129   1.929       .  S
C1119      C1120   1.407       .  A
C1119      C1124   1.406       .  A
C1120      C1121   1.412       .  A
C1120     Br1131   1.929       .  S
C1121      C1122   1.419       .  A
C1121     Br1127   1.931       .  S
C1122      C1123   1.420       .  A
C1123      C1124   1.406       .  A
C1123     Br1132   1.934       .  S
C1124     Br1128   1.934   1_565  S
C1133      C1134   1.411       .  A
C1133      C1138   1.410       .  A
C1134      C1135   1.407       .  A
C1134     Br1146   1.931       .  S
C1135      C1136   1.409       .  A
C1135     Br1150   1.930   1_565  S
C1136      C1139   1.481   1_565  S
C1136      C1137   1.408       .  A
C1137      C1138   1.405       .  A
C1137     Br1145   1.931       .  S
C1138     Br1149   1.926       .  S
C1139      C1140   1.408       .  A
C1139      C1144   1.406       .  A
C1140      C1141   1.409       .  A
C1140     Br1151   1.929   1_545  S
C1141      C1142   1.412       .  A
C1141     Br1147   1.930       .  S
C1142      C1143   1.414       .  A
C1143      C1144   1.404       .  A
C1143     Br1152   1.925       .  S
C1144     Br1148   1.934       .  S
C1153      C1154   1.412       .  A
C1153      C1158   1.414       .  A
C1154      C1155   1.404       .  A
C1154     Br1166   1.929       .  S
C1155      C1156   1.406       .  A
C1155     Br1170   1.931       .  S
C1156      C1159   1.474       .  S
C1156      C1157   1.405       .  A
C1157      C1158   1.404       .  A
C1157     Br1165   1.931       .  S
C1158     Br1169   1.927       .  S
C1159      C1160   1.406       .  A
C1159      C1164   1.406       .  A
C1160      C1161   1.402       .  A
C1160     Br1171   1.933       .  S
C1161      C1162   1.414       .  A
C1161     Br1167   1.929       .  S
C1162      C1163   1.413       .  A
C1163      C1164   1.406       .  A
C1163     Br1172   1.930       .  S
C1164     Br1168   1.929       .  S
C1173      C1174   1.412       .  A
C1173      C1178   1.414       .  A
C1174      C1175   1.403       .  A
C1174     Br1186   1.932       .  S
C1175      C1176   1.407       .  A
C1175     Br1190   1.932       .  S
C1176      C1179   1.479       .  S
C1176      C1177   1.407       .  A
C1177      C1178   1.408       .  A
C1177     Br1185   1.929       .  S
C1178     Br1189   1.929       .  S
C1179      C1180   1.402       .  A
C1179      C1184   1.403       .  A
C1180      C1181   1.405       .  A
C1180     Br1191   1.939       .  S
C1181      C1182   1.429       .  A
C1181     Br1187   1.938       .  S
C1182      C1183   1.423       .  A
C1183      C1184   1.409       .  A
C1183     Br1192   1.930       .  S
C1184     Br1188   1.931       .  S
C1193      C1194   1.418       .  A
C1193      C1198   1.415       .  A
C1194      C1195   1.411       .  A
C1194     Br1206   1.927       .  S
C1195      C1196   1.408       .  A
C1195     Br1210   1.932       .  S
C1196      C1199   1.493       .  S
C1196      C1197   1.409       .  A
C1197      C1198   1.413       .  A
C1197     Br1205   1.928       .  S
C1198     Br1209   1.929       .  S
C1199      C1200   1.409       .  A
C1199      C1204   1.411       .  A
C1200      C1201   1.408       .  A
C1200     Br1211   1.930       .  S
C1201      C1202   1.412       .  A
C1201     Br1207   1.932       .  S
C1202      C1203   1.414       .  A
C1203      C1204   1.414       .  A
C1203     Br1212   1.928       .  S
C1204     Br1208   1.929       .  S
C1213      C1214   1.408       .  A
C1213      C1218   1.408       .  A
C1214      C1215   1.407       .  A
C1214     Br1226   1.931       .  S
C1215      C1216   1.412       .  A
C1215     Br1230   1.931       .  S
C1216      C1219   1.487       .  S
C1216      C1217   1.412       .  A
C1217      C1218   1.407       .  A
C1217     Br1225   1.930       .  S
C1218     Br1229   1.932       .  S
C1219      C1220   1.408       .  A
C1219      C1224   1.411       .  A
C1220      C1221   1.405       .  A
C1220     Br1231   1.934       .  S
C1221      C1222   1.412       .  A
C1221     Br1227   1.923       .  S
C1222      C1223   1.412       .  A
C1223      C1224   1.411       .  A
C1223     Br1232   1.928       .  S
C1224     Br1228   1.930       .  S
C1233      C1234   1.418       .  A
C1233      C1238   1.418       .  A
C1234      C1235   1.408       .  A
C1234     Br1246   1.935       .  S
C1235      C1236   1.412       .  A
C1235     Br1250   1.936   1_455  S
C1236      C1239   1.495   1_455  S
C1236      C1237   1.411       .  A
C1237      C1238   1.411       .  A
C1237     Br1245   1.931       .  S
C1238     Br1249   1.933       .  S
C1239      C1240   1.411       .  A
C1239      C1244   1.414       .  A
C1240      C1241   1.408       .  A
C1240     Br1251   1.933   1_655  S
C1241      C1242   1.414       .  A
C1241     Br1247   1.933       .  S
C1242      C1243   1.410       .  A
C1243      C1244   1.411       .  A
C1243     Br1252   1.929       .  S
C1244     Br1248   1.931       .  S
C1253      C1254   1.415       .  A
C1253      C1258   1.418       .  A
C1254      C1255   1.404       .  A
C1254     Br1266   1.937       .  S
C1255      C1256   1.409       .  A
C1255     Br1270   1.933   1_455  S
C1256      C1259   1.491   1_455  S
C1256      C1257   1.411       .  A
C1257      C1258   1.415       .  A
C1257     Br1265   1.929       .  S
C1258     Br1269   1.930       .  S
C1259      C1260   1.409       .  A
C1259      C1264   1.409       .  A
C1260      C1261   1.410       .  A
C1260     Br1271   1.930       .  S
C1261      C1262   1.411       .  A
C1261     Br1267   1.919       .  S
C1262      C1263   1.412       .  A
C1263      C1264   1.409       .  A
C1263     Br1272   1.924       .  S
C1264     Br1268   1.929   1_655  S
C1273      C1274   1.408       .  A
C1273      C1278   1.410       .  A
C1274      C1275   1.408       .  A
C1274     Br1286   1.927       .  S
C1275      C1276   1.411       .  A
C1275     Br1290   1.929       .  S
C1276      C1279   1.488       .  S
C1276      C1277   1.410       .  A
C1277      C1278   1.408       .  A
C1277     Br1285   1.929       .  S
C1278     Br1289   1.930       .  S
C1279      C1280   1.410       .  A
C1279      C1284   1.407       .  A
C1280      C1281   1.413       .  A
C1280     Br1291   1.930       .  S
C1281      C1282   1.414       .  A
C1281     Br1287   1.929       .  S
C1282      C1283   1.411       .  A
C1283      C1284   1.406       .  A
C1283     Br1292   1.920       .  S
C1284     Br1288   1.932       .  S
C1293      C1294   1.410       .  A
C1293      C1298   1.409       .  A
C1294      C1295   1.409       .  A
C1294     Br1306   1.930       .  S
C1295      C1296   1.410       .  A
C1295     Br1310   1.929       .  S
C1296      C1299   1.488       .  S
C1296      C1297   1.410       .  A
C1297      C1298   1.408       .  A
C1297     Br1305   1.929       .  S
C1298     Br1309   1.929       .  S
C1299      C1300   1.405       .  A
C1299      C1304   1.406       .  A
C1300      C1301   1.410       .  A
C1300     Br1311   1.931       .  S
C1301      C1302   1.424       .  A
C1301     Br1307   1.935       .  S
C1302      C1303   1.425       .  A
C1303      C1304   1.410       .  A
C1303     Br1312   1.935       .  S
C1304     Br1308   1.935       .  S
