geometry optimzed in LAMMPS
_audit_creation_date              2020-11-30 
_audit_creation_method            'lammps2cif' 
_symmetry_space_group_name_H-M    'P1' 
_symmetry_Int_Tables_number       1 
_symmetry_cell_setting            triclinic 
loop_ 
_symmetry_equiv_pos_as_xyz 
  x,y,z 
_cell_length_a                    42.34025879 
_cell_length_b                    42.44039468952096 
_cell_length_c                    38.805996524913496 
_cell_angle_alpha                 90.14417373081874 
_cell_angle_beta                  89.95964538816395 
_cell_angle_gamma                 88.44608719208195 
loop_ 
_atom_site_label 
_atom_site_type_symbol 
_atom_site_fract_x 
_atom_site_fract_y 
_atom_site_fract_z 
_atom_site_charge 
N1          N  0.43118065  0.01420181  0.46078420    -0.06700
N2          N  0.41362756  0.02510522  0.43515188    -0.58800
N3          N  0.42990492  0.48436917  0.04044469    -0.06300
N4          N  0.41068068  0.47433756  0.06465481    -0.60900
N5          N  0.42943156  0.01536719  0.03976212    -0.05900
N6          N  0.40987050  0.02695431  0.06337019    -0.58800
N7          N  0.43149379  0.48320140  0.46113216    -0.05600
N8          N  0.41406461  0.47243064  0.43568206    -0.61300
C9          C  0.40330535  0.49882899  0.41943422     0.95500
C10         C  0.39826912  0.00117766  0.07879646     0.95300
N11         N  0.01526183  0.43115597  0.04245348    -0.06900
N12         N  0.02665094  0.41277155  0.06707172    -0.59400
N13         N  0.48528650  0.42991701  0.46300605    -0.05000
N14         N  0.47534236  0.41062707  0.43881191    -0.60600
N15         N  0.01634999  0.43001814  0.46340462    -0.06900
N16         N  0.02809796  0.41086381  0.43949637    -0.59600
N17         N  0.48419549  0.43097487  0.04224069    -0.04600
N18         N  0.47389826  0.41223095  0.06673989    -0.60700
Mn19       Mn  0.45698615  0.45640335  0.00177247     1.18400
C20         C  0.00070288  0.40093254  0.08198692     0.97600
C21         C  0.50230265  0.39877490  0.42437368     0.98300
N22         N  0.48151053  0.06742517  0.04014633    -0.06900
N23         N  0.46999338  0.08658582  0.06416904    -0.63200
N24         N  0.01374569  0.06609113  0.46151756    -0.05700
N25         N  0.02443370  0.08410770  0.43661941    -0.63900
N26         N  0.48270070  0.06615806  0.46101774    -0.06400
N27         N  0.47173553  0.08414096  0.43579535    -0.63500
N28         N  0.01256673  0.06719049  0.04063158    -0.05300
N29         N  0.02272992  0.08617904  0.06494759    -0.64200
Mn30       Mn  0.45556614  0.04141252  0.50047016     1.10700
C31         C  0.99593105  0.09804797  0.07965033     0.98800
C32         C  0.49795309  0.09516715  0.42056239     0.98900
N33         N  0.06808630  0.48220090  0.46384053    -0.06400
N34         N  0.08727304  0.47086064  0.43976758    -0.61800
N35         N  0.06631712  0.01403199  0.04259140    -0.05700
N36         N  0.08383991  0.02476390  0.06798193    -0.58500
N37         N  0.06677278  0.48303996  0.04276693    -0.08500
N38         N  0.08457648  0.47208995  0.06818514    -0.61400
N39         N  0.06752075  0.01317598  0.46341536    -0.06000
N40         N  0.08621380  0.02351304  0.43893594    -0.58500
Mn41       Mn  0.04220093  0.45601664  0.00307383     1.20200
Mn42       Mn  0.04070107  0.04080277  0.50205796     1.10100
Cl43       Cl  0.99883137  0.99864447  0.00189525    -0.86500
C44         C  0.09819544  0.49684942  0.42411506     0.95800
C45         C  0.09483469  0.99832841  0.08401937     0.95600
N46         N  0.49832274  0.29732318  0.25282277    -0.37200
N47         N  0.50182649  0.24748235  0.30489469    -0.57700
N48         N  0.49806954  0.19996266  0.25058194    -0.37200
N49         N  0.49982709  0.24964111  0.19845222    -0.57700
C50         C  0.50460952  0.31450541  0.28126669     0.26400
C51         C  0.50400052  0.31559151  0.22509625     0.26400
C52         C  0.50375701  0.18111040  0.27806769     0.26400
C53         C  0.50264928  0.18228500  0.22189045     0.26400
C54         C  0.49780562  0.27277277  0.32586021     0.35000
C55         C  0.49803639  0.22167514  0.32470393     0.35000
C56         C  0.49560097  0.27566214  0.17880652     0.35000
C57         C  0.49522314  0.22463819  0.17759362     0.35000
C58         C  0.51394776  0.34426899  0.27151807    -0.22400
C59         C  0.51359149  0.34494194  0.23607225    -0.22400
C60         C  0.51154879  0.15087587  0.26669769    -0.22400
C61         C  0.51086357  0.15161499  0.23127077    -0.22400
C62         C  0.49185815  0.26294896  0.35923340    -0.23500
C63         C  0.49209636  0.23061366  0.35851736    -0.23500
C64         C  0.48863838  0.26711751  0.14520314    -0.23500
C65         C  0.48844372  0.23481019  0.14442796    -0.23500
C66         C  0.50084485  0.30460687  0.31579981    -0.18800
C67         C  0.49950214  0.30701356  0.19020954    -0.18800
C68         C  0.49864678  0.19267594  0.18747205    -0.18800
C69         C  0.50106492  0.19006833  0.31315178    -0.18800
H70         H  0.52028846  0.36355774  0.28821587     0.14100
H71         H  0.51958849  0.36484506  0.22019636     0.14100
H72         H  0.51715834  0.13037499  0.28229895     0.14100
H73         H  0.51584933  0.13177757  0.21435424     0.14100
H74         H  0.48789033  0.27754669  0.38181512     0.12300
H75         H  0.48833694  0.21542563  0.38042234     0.12300
H76         H  0.48433326  0.28253630  0.12343505     0.12300
H77         H  0.48400006  0.22044972  0.12194867     0.12300
H78         H  0.48905181  0.27502275  0.25244837     0.25600
H79         H  0.49011258  0.22318382  0.25135115     0.25600
N80         N  0.29742836  0.49759763  0.25040712    -0.37200
N81         N  0.25035938  0.49998328  0.30546625    -0.57700
N82         N  0.20010715  0.49591894  0.25420799    -0.37200
N83         N  0.24700388  0.49881050  0.19918293    -0.57700
C84         C  0.31593819  0.50434083  0.27769080     0.26400
C85         C  0.31420059  0.50343525  0.22155282     0.26400
C86         C  0.18306896  0.50244718  0.28295273     0.26400
C87         C  0.18120821  0.50223265  0.22684880     0.26400
C88         C  0.27674346  0.49605443  0.32469582     0.35000
C89         C  0.22571372  0.49490780  0.32667959     0.35000
C90         C  0.27207707  0.49407662  0.17803467     0.35000
C91         C  0.22096362  0.49357527  0.18010431     0.35000
C92         C  0.34503239  0.51417200  0.26603713    -0.22400
C93         C  0.34394180  0.51358707  0.23061062    -0.22400
C94         C  0.15281415  0.51258360  0.27378178    -0.22400
C95         C  0.15165627  0.51249294  0.23836579    -0.22400
C96         C  0.26879537  0.48885424  0.35838494    -0.23500
C97         C  0.23643332  0.48813411  0.35963893    -0.23500
C98         C  0.26189952  0.48610075  0.14529506    -0.23500
C99         C  0.22951275  0.48578100  0.14660739    -0.23500
C100        C  0.30784062  0.50060322  0.31280890    -0.18800
C101        C  0.30395478  0.49850787  0.18729775    -0.18800
C102        C  0.18950708  0.49791170  0.19179621    -0.18800
C103        C  0.19361283  0.49834457  0.31726074    -0.18800
H104        H  0.36502950  0.52098010  0.28145933     0.14100
H105        H  0.36294930  0.51982900  0.21347751     0.14100
H106        H  0.13356332  0.51939758  0.29084143     0.14100
H107        H  0.13133987  0.51921394  0.22286340     0.14100
H108        H  0.28464587  0.48478227  0.37988375     0.12300
H109        H  0.22239174  0.48347009  0.38228631     0.12300
H110        H  0.27629768  0.48123697  0.12274677     0.12300
H111        H  0.21401109  0.48069588  0.12525497     0.12300
H112        H  0.27523935  0.48796852  0.25142333     0.25600
H113        H  0.22280232  0.48616719  0.25336998     0.25600
C114        C  0.16385867  0.49924893  0.16561671    -0.06700
C115        C  0.14427171  0.47334398  0.16208972    -0.17800
C116        C  0.12080168  0.47274504  0.13668376     0.10500
C117        C  0.11729091  0.99832134  0.11341766    -0.06600
C118        C  0.13659840  0.02448651  0.11759582    -0.17800
C119        C  0.15943063  0.02539301  0.14359267     0.10600
S120        S  0.09569431  0.43911110  0.13625047    -0.32800
S121        S  0.18247323  0.06038809  0.14708382    -0.32800
H122        H  0.18693090  0.05881704  0.18293572     0.28600
H123        H  0.06770859  0.45703147  0.13072993     0.28600
H124        H  0.14728410  0.45346316  0.17936835     0.19200
H125        H  0.13415450  0.04437159  0.10025566     0.19200
C126        C  0.12205679  0.49658630  0.39609042    -0.06700
C127        C  0.13929494  0.02403294  0.39073960    -0.17800
C128        C  0.16263125  0.02537803  0.36531167     0.10500
C129        C  0.16942230  0.49848496  0.34490629    -0.06600
C130        C  0.15250693  0.47101230  0.35018838    -0.17800
C131        C  0.12871181  0.46982231  0.37511680     0.10600
S132        S  0.18294008  0.06199562  0.36057331    -0.32800
S133        S  0.10715904  0.43385839  0.37757922    -0.32800
H134        H  0.07735237  0.44936545  0.37808159     0.28600
H135        H  0.19182785  0.05819394  0.32592174     0.28600
H136        H  0.13466627  0.04472557  0.40655170     0.19200
H137        H  0.15753875  0.45047910  0.33423310     0.19200
C138        C  0.32802248  0.49873591  0.15937885    -0.06700
C139        C  0.32991983  0.02553835  0.13857771    -0.17800
C140        C  0.35269663  0.02739328  0.11254166     0.10500
C141        C  0.37431721  0.00175047  0.10689473    -0.06600
C142        C  0.37221917  0.47494773  0.12792609    -0.17800
C143        C  0.34929518  0.47308648  0.15379173     0.10600
S144        S  0.35148113  0.06236326  0.08642570    -0.32800
S145        S  0.34828180  0.43729993  0.17869137    -0.32800
H146        H  0.31551830  0.43817584  0.18462597     0.28600
H147        H  0.38150868  0.07145686  0.09730629     0.28600
H148        H  0.31347995  0.04520857  0.14274141     0.19200
H149        H  0.38842161  0.45505086  0.12404107     0.19200
C150        C  0.38066547  0.49943178  0.39025446    -0.06700
C151        C  0.36079480  0.02628491  0.38621829    -0.17800
C152        C  0.33759146  0.02775616  0.36058550     0.10500
C153        C  0.33355499  0.50154901  0.33874345    -0.06600
C154        C  0.35369676  0.47501289  0.34213223    -0.17800
C155        C  0.37750376  0.47386582  0.36710681     0.10600
S156        S  0.31351584  0.06339763  0.35757273    -0.32800
S157        S  0.40366220  0.43968625  0.36691789    -0.32800
H158        H  0.43112710  0.45691263  0.37257103     0.28600
H159        H  0.30694297  0.06110583  0.32218224     0.28600
H160        H  0.36301465  0.04622693  0.40345574     0.19200
H161        H  0.35092589  0.45509126  0.32496469     0.19200
C162        C  0.49853774  0.16836961  0.15993882    -0.06700
C163        C  0.47064132  0.15225565  0.15408445    -0.17800
C164        C  0.46877597  0.12958918  0.12800968     0.10500
C165        C  0.99563952  0.12231141  0.10736263    -0.06600
C166        C  0.02360241  0.13863036  0.11349148    -0.17800
C167        C  0.02534594  0.16146696  0.13941638     0.10600
S168        S  0.43173193  0.11033365  0.12346280    -0.32800
S169        S  0.06226052  0.18124442  0.14458221    -0.32800
H170        H  0.05910715  0.18792544  0.17990000     0.28600
H171        H  0.42594936  0.12346425  0.09072051     0.28600
H172        H  0.45004278  0.15761323  0.16986617     0.19200
H173        H  0.04440505  0.13367565  0.09791911     0.19200
C174        C  0.50125760  0.16465360  0.33947497    -0.06700
C175        C  0.47297146  0.14941361  0.34608577    -0.17800
C176        C  0.47091712  0.12681914  0.37216017     0.10500
C177        C  0.49806617  0.11856086  0.39197104    -0.06600
C178        C  0.02654681  0.13354078  0.38461021    -0.17800
C179        C  0.02843821  0.15641754  0.35882270     0.10600
S180        S  0.43296521  0.10958940  0.37838543    -0.32800
S181        S  0.06603900  0.17468784  0.35270847    -0.32800
H182        H  0.06132660  0.18444584  0.31851928     0.28600
H183        H  0.42890809  0.12349184  0.41112101     0.28600
H184        H  0.45207857  0.15575184  0.33124414     0.19200
H185        H  0.04760910  0.12775273  0.39937693     0.19200
C186        C  0.49982106  0.33221073  0.16367516    -0.06700
C187        C  0.02672065  0.33468967  0.14296071    -0.17800
C188        C  0.02768400  0.35647277  0.11602870     0.10500
C189        C  0.00141577  0.37724775  0.11012770    -0.06600
C190        C  0.47477043  0.37512113  0.13154767    -0.17800
C191        C  0.47356750  0.35271618  0.15792600     0.10600
S192        S  0.06237239  0.35481800  0.08909941    -0.32800
S193        S  0.43784525  0.35138910  0.18318751    -0.32800
H194        H  0.43937452  0.31886794  0.18991392     0.28600
H195        H  0.04504631  0.35428905  0.05816936     0.28600
H196        H  0.04676855  0.31872973  0.14715194     0.19200
H197        H  0.45451646  0.39083716  0.12752718     0.19200
C198        C  0.50299002  0.37463357  0.39653903    -0.06700
C199        C  0.47599764  0.37195322  0.37576573    -0.17800
C200        C  0.47456657  0.34939074  0.34949875     0.10500
C201        C  0.50090537  0.32906950  0.34328590    -0.06600
C202        C  0.02804772  0.33184825  0.36356249    -0.17800
C203        C  0.02930383  0.35399282  0.39027607     0.10600
S204        S  0.43851406  0.34794067  0.32481881    -0.32800
S205        S  0.06461225  0.35334042  0.41613655    -0.32800
H206        H  0.04802430  0.35281836  0.44756286     0.28600
H207        H  0.44078711  0.31578111  0.31625235     0.28600
H208        H  0.45566363  0.38749670  0.38008520     0.19200
H209        H  0.04822251  0.31613625  0.35891266     0.19200
N210        N  0.43118057  0.01420155  0.96078429    -0.06700
N211        N  0.41362755  0.02510489  0.93515189    -0.58800
N212        N  0.42990495  0.48436905  0.54044456    -0.06300
N213        N  0.41068070  0.47433742  0.56465467    -0.60900
N214        N  0.42943166  0.01536730  0.53976214    -0.05900
N215        N  0.40987055  0.02695439  0.56337020    -0.58800
N216        N  0.43149371  0.48320139  0.96113226    -0.05600
N217        N  0.41406464  0.47243057  0.93568207    -0.61300
C218        C  0.40330529  0.49882890  0.91943422     0.95500
C219        C  0.39826907  0.00117771  0.57879632     0.95300
N220        N  0.01526179  0.43115598  0.54245330    -0.06900
N221        N  0.02665084  0.41277161  0.56707162    -0.59400
N222        N  0.48528654  0.42991711  0.96300617    -0.05000
N223        N  0.47534242  0.41062710  0.93881208    -0.60600
N224        N  0.01635006  0.43001810  0.96340482    -0.06900
N225        N  0.02809808  0.41086373  0.93949664    -0.59600
N226        N  0.48419544  0.43097471  0.54224055    -0.04600
N227        N  0.47389817  0.41223086  0.56673979    -0.60700
Mn228      Mn  0.45698618  0.45640326  0.50177232     1.18400
C229        C  0.00070276  0.40093271  0.58198685     0.97600
C230        C  0.50230271  0.39877496  0.92437382     0.98300
N231        N  0.48151072  0.06742512  0.54014637    -0.06900
N232        N  0.46999355  0.08658585  0.56416899    -0.63200
N233        N  0.01374544  0.06609132  0.96151747    -0.05700
N234        N  0.02443340  0.08410794  0.93661934    -0.63900
N235        N  0.48270044  0.06615801  0.96101760    -0.06400
N236        N  0.47173527  0.08414093  0.93579522    -0.63500
N237        N  0.01256683  0.06719042  0.54063164    -0.05300
N238        N  0.02272996  0.08617909  0.56494757    -0.64200
Mn239      Mn  0.45556594  0.04141244  0.00047014     1.10700
C240        C  0.99593106  0.09804810  0.57965015     0.98800
C241        C  0.49795282  0.09516720  0.92056230     0.98900
N242        N  0.06808621  0.48220093  0.96384062    -0.06400
N243        N  0.08727307  0.47086068  0.93976777    -0.61800
N244        N  0.06631721  0.01403181  0.54259155    -0.05700
N245        N  0.08383998  0.02476366  0.56798212    -0.58500
N246        N  0.06677291  0.48303974  0.54276677    -0.08500
N247        N  0.08457653  0.47208962  0.56818497    -0.61400
N248        N  0.06752059  0.01317624  0.96341525    -0.06000
N249        N  0.08621369  0.02351331  0.93893588    -0.58500
Mn250      Mn  0.04220096  0.45601661  0.50307369     1.20200
Mn251      Mn  0.04070091  0.04080295  0.00205782     1.10100
Cl252      Cl  0.99883150  0.99864441  0.50189524    -0.86500
C253        C  0.09819541  0.49684949  0.92411524     0.95800
C254        C  0.09483467  0.99832813  0.58401952     0.95600
N255        N  0.49832240  0.29732307  0.75282278    -0.37200
N256        N  0.50182619  0.24748233  0.80489465    -0.57700
N257        N  0.49806910  0.19996275  0.75058186    -0.37200
N258        N  0.49982691  0.24964118  0.69845213    -0.57700
C259        C  0.50460931  0.31450533  0.78126667     0.26400
C260        C  0.50400027  0.31559142  0.72509627     0.26400
C261        C  0.50375653  0.18111043  0.77806759     0.26400
C262        C  0.50264876  0.18228506  0.72189038     0.26400
C263        C  0.49780559  0.27277275  0.82586021     0.35000
C264        C  0.49803609  0.22167511  0.82470390     0.35000
C265        C  0.49560079  0.27566220  0.67880644     0.35000
C266        C  0.49522296  0.22463826  0.67759351     0.35000
C267        C  0.51394765  0.34426891  0.77151806    -0.22400
C268        C  0.51359138  0.34494184  0.73607226    -0.22400
C269        C  0.51154815  0.15087587  0.76669759    -0.22400
C270        C  0.51086291  0.15161500  0.73127069    -0.22400
C271        C  0.49185822  0.26294897  0.85923342    -0.23500
C272        C  0.49209622  0.23061366  0.85851737    -0.23500
C273        C  0.48863828  0.26711757  0.64520304    -0.23500
C274        C  0.48844359  0.23481025  0.64442785    -0.23500
C275        C  0.50084476  0.30460687  0.81579982    -0.18800
C276        C  0.49950187  0.30701361  0.69020953    -0.18800
C277        C  0.49864647  0.19267602  0.68747198    -0.18800
C278        C  0.50106460  0.19006832  0.81315169    -0.18800
H279        H  0.52028838  0.36355763  0.78821584     0.14100
H280        H  0.51958840  0.36484494  0.72019637     0.14100
H281        H  0.51715763  0.13037498  0.78229882     0.14100
H282        H  0.51584860  0.13177756  0.71435419     0.14100
H283        H  0.48789052  0.27754674  0.88181513     0.12300
H284        H  0.48833682  0.21542570  0.88042237     0.12300
H285        H  0.48433320  0.28253636  0.62343490     0.12300
H286        H  0.48399994  0.22044977  0.62194859     0.12300
H287        H  0.48905126  0.27502241  0.75244837     0.25600
H288        H  0.49011232  0.22318407  0.75135107     0.25600
N289        N  0.29742827  0.49759774  0.75040709    -0.37200
N290        N  0.25035934  0.49998382  0.80546639    -0.57700
N291        N  0.20010722  0.49591879  0.75420819    -0.37200
N292        N  0.24700372  0.49881013  0.69918288    -0.57700
C293        C  0.31593816  0.50434100  0.77769070     0.26400
C294        C  0.31420049  0.50343510  0.72155271     0.26400
C295        C  0.18306892  0.50244694  0.78295292     0.26400
C296        C  0.18120812  0.50223216  0.72684899     0.26400
C297        C  0.27674347  0.49605496  0.82469589     0.35000
C298        C  0.22571373  0.49490831  0.82667979     0.35000
C299        C  0.27207687  0.49407659  0.67803450     0.35000
C300        C  0.22096342  0.49357510  0.68010427     0.35000
C301        C  0.34503242  0.51417189  0.76603692    -0.22400
C302        C  0.34394175  0.51358682  0.73061042    -0.22400
C303        C  0.15281395  0.51258284  0.77378197    -0.22400
C304        C  0.15165604  0.51249208  0.73836600    -0.22400
C305        C  0.26879545  0.48885479  0.85838505    -0.23500
C306        C  0.23643339  0.48813463  0.85963912    -0.23500
C307        C  0.26189923  0.48610108  0.64529479    -0.23500
C308        C  0.22951246  0.48578127  0.64660721    -0.23500
C309        C  0.30784062  0.50060357  0.81280885    -0.18800
C310        C  0.30395462  0.49850769  0.68729762    -0.18800
C311        C  0.18950692  0.49791128  0.69179636    -0.18800
C312        C  0.19361283  0.49834480  0.81726097    -0.18800
H313        H  0.36502964  0.52097988  0.78145902     0.14100
H314        H  0.36294930  0.51982860  0.71347723     0.14100
H315        H  0.13356304  0.51939660  0.79084161     0.14100
H316        H  0.13133958  0.51921276  0.72286364     0.14100
H317        H  0.28464597  0.48478284  0.87988381     0.12300
H318        H  0.22239186  0.48347059  0.88228648     0.12300
H319        H  0.27629730  0.48123752  0.62274638     0.12300
H320        H  0.21401074  0.48069637  0.62525473     0.12300
H321        H  0.27523920  0.48796875  0.75142343     0.25600
H322        H  0.22280269  0.48616732  0.75337019     0.25600
C323        C  0.16385844  0.49924849  0.66561692    -0.06700
C324        C  0.14427166  0.47334343  0.66208973    -0.17800
C325        C  0.12080178  0.47274445  0.63668360     0.10500
C326        C  0.11729087  0.99832104  0.61341778    -0.06600
C327        C  0.13659832  0.02448624  0.61759599    -0.17800
C328        C  0.15943045  0.02539281  0.64359293     0.10600
S329        S  0.09569488  0.43911018  0.63624969    -0.32800
S330        S  0.18247281  0.06038806  0.64708431    -0.32800
H331        H  0.18693099  0.05881664  0.68293611     0.28600
H332        H  0.06770894  0.45703027  0.63072940     0.28600
H333        H  0.14728413  0.45346252  0.67936824     0.19200
H334        H  0.13415438  0.04437130  0.60025586     0.19200
C335        C  0.12205685  0.49658642  0.89609074    -0.06700
C336        C  0.13929506  0.02403314  0.89073983    -0.17800
C337        C  0.16263136  0.02537822  0.86531192     0.10500
C338        C  0.16942230  0.49848515  0.84490656    -0.06600
C339        C  0.15250669  0.47101260  0.85018837    -0.17800
C340        C  0.12871160  0.46982261  0.87511677     0.10600
S341        S  0.18294041  0.06199569  0.86057379    -0.32800
S342        S  0.10715858  0.43385886  0.87757872    -0.32800
H343        H  0.07735203  0.44936611  0.87808176     0.28600
H344        H  0.19182746  0.05819432  0.82592196     0.28600
H345        H  0.13466652  0.04472571  0.90655204     0.19200
H346        H  0.15753830  0.45047949  0.83423287     0.19200
C347        C  0.32802230  0.49873574  0.65937867    -0.06700
C348        C  0.32991941  0.02553788  0.63857730    -0.17800
C349        C  0.35269628  0.02739298  0.61254131     0.10500
C350        C  0.37431715  0.00175038  0.60689460    -0.06600
C351        C  0.37221922  0.47494772  0.62792609    -0.17800
C352        C  0.34929516  0.47308644  0.65379165     0.10600
S353        S  0.35148053  0.06236284  0.58642517    -0.32800
S354        S  0.34828210  0.43729996  0.67869139    -0.32800
H355        H  0.31551856  0.43817554  0.68462571     0.28600
H356        H  0.38150787  0.07145690  0.59730601     0.28600
H357        H  0.31347931  0.04520795  0.64274084     0.19200
H358        H  0.38842189  0.45505101  0.62404132     0.19200
C359        C  0.38066544  0.49943174  0.89025440    -0.06700
C360        C  0.36079516  0.02628463  0.88621799    -0.17800
C361        C  0.33759187  0.02775586  0.86058516     0.10500
C362        C  0.33355504  0.50154922  0.83874332    -0.06600
C363        C  0.35369638  0.47501282  0.84213246    -0.17800
C364        C  0.37750334  0.47386562  0.86710706     0.10600
S365        S  0.31351662  0.06339751  0.85757194    -0.32800
S366        S  0.40366115  0.43968560  0.86691863    -0.32800
H367        H  0.43112639  0.45691166  0.87257102     0.28600
H368        H  0.30694405  0.06110555  0.82218139     0.28600
H369        H  0.36301518  0.04622682  0.90345522     0.19200
H370        H  0.35092518  0.45509104  0.82496518     0.19200
C371        C  0.49853758  0.16836969  0.65993875    -0.06700
C372        C  0.47064113  0.15225590  0.65408407    -0.17800
C373        C  0.46877587  0.12958949  0.62800926     0.10500
C374        C  0.99563941  0.12231165  0.60736232    -0.06600
C375        C  0.02360237  0.13863043  0.61349148    -0.17800
C376        C  0.02534584  0.16146695  0.63941647     0.10600
S377        S  0.43173175  0.11033417  0.62346201    -0.32800
S378        S  0.06226059  0.18124400  0.64458295    -0.32800
H379        H  0.05910684  0.18792505  0.67990070     0.28600
H380        H  0.42594947  0.12346489  0.59071971     0.28600
H381        H  0.45004250  0.15761359  0.66986559     0.19200
H382        H  0.04440512  0.13367558  0.59791937     0.19200
C383        C  0.50125733  0.16465353  0.83947481    -0.06700
C384        C  0.47297124  0.14941341  0.84608542    -0.17800
C385        C  0.47091687  0.12681898  0.87215987     0.10500
C386        C  0.49806587  0.11856086  0.89197093    -0.06600
C387        C  0.02654643  0.13354099  0.88461020    -0.17800
C388        C  0.02843784  0.15641769  0.85882262     0.10600
S389        S  0.43296505  0.10958898  0.87838488    -0.32800
S390        S  0.06603860  0.17468813  0.85270845    -0.32800
H391        H  0.06132616  0.18444639  0.81851935     0.28600
H392        H  0.42890771  0.12349127  0.91112052     0.28600
H393        H  0.45207843  0.15575153  0.83124363     0.19200
H394        H  0.04760867  0.12775310  0.89937708     0.19200
C395        C  0.49982085  0.33221086  0.66367523    -0.06700
C396        C  0.02672046  0.33468981  0.64296065    -0.17800
C397        C  0.02768385  0.35647288  0.61602861     0.10500
C398        C  0.00141566  0.37724796  0.61012767    -0.06600
C399        C  0.47477032  0.37512134  0.63154776    -0.17800
C400        C  0.47356732  0.35271637  0.65792606     0.10600
S401        S  0.06237218  0.35481784  0.58909916    -0.32800
S402        S  0.43784488  0.35138918  0.68318723    -0.32800
H403        H  0.43937451  0.31886819  0.68991454     0.28600
H404        H  0.04504597  0.35428891  0.55816920     0.28600
H405        H  0.04676833  0.31872977  0.64715181     0.19200
H406        H  0.45451636  0.39083740  0.62752723     0.19200
C407        C  0.50299007  0.37463363  0.89653912    -0.06700
C408        C  0.47599777  0.37195348  0.87576562    -0.17800
C409        C  0.47456671  0.34939098  0.84949866     0.10500
C410        C  0.50090537  0.32906953  0.84328594    -0.06600
C411        C  0.02804787  0.33184798  0.86356286    -0.17800
C412        C  0.02930394  0.35399254  0.89027649     0.10600
S413        S  0.43851434  0.34794097  0.82481852    -0.32800
S414        S  0.06461188  0.35333954  0.91613778    -0.32800
H415        H  0.04802336  0.35281794  0.94756375     0.28600
H416        H  0.44078672  0.31578099  0.81625382     0.28600
H417        H  0.45566385  0.38749715  0.88008494     0.19200
H418        H  0.04822251  0.31613570  0.85891332     0.19200
N419        N  0.43118061  0.51420163  0.46078423    -0.06700
N420        N  0.41362759  0.52510503  0.43515185    -0.58800
N421        N  0.42990487  0.98436905  0.04044461    -0.06300
N422        N  0.41068057  0.97433744  0.06465467    -0.60900
N423        N  0.42943161  0.51536731  0.03976222    -0.05900
N424        N  0.40987064  0.52695442  0.06337039    -0.58800
N425        N  0.43149378  0.98320157  0.46113213    -0.05600
N426        N  0.41406453  0.97243084  0.43568206    -0.61300
C427        C  0.40330523  0.99882920  0.41943427     0.95500
C428        C  0.39826929  0.50117776  0.07879667     0.95300
N429        N  0.01526178  0.93115592  0.04245330    -0.06900
N430        N  0.02665090  0.91277146  0.06707150    -0.59400
N431        N  0.48528643  0.92991716  0.46300590    -0.05000
N432        N  0.47534233  0.91062726  0.43881170    -0.60600
N433        N  0.01634999  0.93001825  0.46340462    -0.06900
N434        N  0.02809804  0.91086398  0.43949638    -0.59600
N435        N  0.48419537  0.93097470  0.04224075    -0.04600
N436        N  0.47389813  0.91223069  0.06673987    -0.60700
Mn437      Mn  0.45698614  0.95640323  0.00177245     1.18400
C438        C  0.00070285  0.90093248  0.08198675     0.97600
C439        C  0.50230266  0.89877514  0.42437348     0.98300
N440        N  0.48151051  0.56742536  0.04014613    -0.06900
N441        N  0.46999342  0.58658613  0.06416875    -0.63200
N442        N  0.01374545  0.56609118  0.46151727    -0.05700
N443        N  0.02443338  0.58410784  0.43661917    -0.63900
N444        N  0.48270045  0.56615794  0.46101754    -0.06400
N445        N  0.47173522  0.58414087  0.43579521    -0.63500
N446        N  0.01256659  0.56719066  0.04063123    -0.05300
N447        N  0.02272984  0.58617935  0.06494708    -0.64200
Mn448      Mn  0.45556600  0.54141244  0.50047007     1.10700
C449        C  0.99593102  0.59804838  0.07964980     0.98800
C450        C  0.49795274  0.59516716  0.42056228     0.98900
N451        N  0.06808629  0.98220071  0.46384056    -0.06400
N452        N  0.08727282  0.97086045  0.43976739    -0.61800
N453        N  0.06631704  0.51403219  0.04259128    -0.05700
N454        N  0.08383994  0.52476422  0.06798167    -0.58500
N455        N  0.06677281  0.98303977  0.04276693    -0.08500
N456        N  0.08457641  0.97208963  0.06818517    -0.61400
N457        N  0.06752065  0.51317618  0.46341517    -0.06000
N458        N  0.08621382  0.52351322  0.43893584    -0.58500
Mn459      Mn  0.04220091  0.95601666  0.00307374     1.20200
Mn460      Mn  0.04070094  0.54080292  0.50205767     1.10100
Cl461      Cl  0.99883134  0.49864444  0.00189524    -0.86500
C462        C  0.09819526  0.99684926  0.42411495     0.95800
C463        C  0.09483481  0.49832879  0.08401914     0.95600
N464        N  0.49832317  0.79732294  0.25282284    -0.37200
N465        N  0.50182633  0.74748226  0.30489466    -0.57700
N466        N  0.49806947  0.69996259  0.25058186    -0.37200
N467        N  0.49982755  0.74964102  0.19845220    -0.57700
C468        C  0.50460978  0.81450526  0.28126677     0.26400
C469        C  0.50400094  0.81559135  0.22509635     0.26400
C470        C  0.50375684  0.68111031  0.27806761     0.26400
C471        C  0.50264918  0.68228490  0.22189041     0.26400
C472        C  0.49780600  0.77277267  0.32586031     0.35000
C473        C  0.49803646  0.72167502  0.32470393     0.35000
C474        C  0.49560166  0.77566206  0.17880648     0.35000
C475        C  0.49522361  0.72463811  0.17759354     0.35000
C476        C  0.51394794  0.84426889  0.27151820    -0.22400
C477        C  0.51359176  0.84494185  0.23607239    -0.22400
C478        C  0.51154851  0.65087574  0.26669764    -0.22400
C479        C  0.51086332  0.65161485  0.23127073    -0.22400
C480        C  0.49185906  0.76294884  0.35923360    -0.23500
C481        C  0.49209706  0.73061353  0.35851750    -0.23500
C482        C  0.48863929  0.76711743  0.14520304    -0.23500
C483        C  0.48844444  0.73481012  0.14442784    -0.23500
C484        C  0.50084511  0.80460678  0.31579990    -0.18800
C485        C  0.49950269  0.80701348  0.19020960    -0.18800
C486        C  0.49864698  0.69267587  0.18747200    -0.18800
C487        C  0.50106483  0.69006822  0.31315169    -0.18800
H488        H  0.52028853  0.86355767  0.28821603     0.14100
H489        H  0.51958868  0.86484501  0.22019655     0.14100
H490        H  0.51715799  0.63037487  0.28229889     0.14100
H491        H  0.51584908  0.63177743  0.21435424     0.14100
H492        H  0.48789173  0.77754655  0.38181540     0.12300
H493        H  0.48833802  0.71542551  0.38042253     0.12300
H494        H  0.48433431  0.78253622  0.12343488     0.12300
H495        H  0.48400079  0.72044966  0.12194857     0.12300
H496        H  0.48905230  0.77502224  0.25244838     0.25600
H497        H  0.49011269  0.72318385  0.25135104     0.25600
N498        N  0.29742835  0.99759825  0.25040713    -0.37200
N499        N  0.25035926  0.99998392  0.30546623    -0.57700
N500        N  0.20010728  0.99591871  0.25420795    -0.37200
N501        N  0.24700392  0.99881063  0.19918280    -0.57700
C502        C  0.31593821  0.00434136  0.27769079     0.26400
C503        C  0.31420065  0.00343559  0.22155281     0.26400
C504        C  0.18306890  0.00244693  0.28295259     0.26400
C505        C  0.18120833  0.00223236  0.22684869     0.26400
C506        C  0.27674336  0.99605523  0.32469581     0.35000
C507        C  0.22571362  0.99490818  0.32667953     0.35000
C508        C  0.27207713  0.99407692  0.17803457     0.35000
C509        C  0.22096373  0.99357519  0.18010417     0.35000
C510        C  0.34503256  0.01417214  0.26603712    -0.22400
C511        C  0.34394197  0.01358713  0.23061061    -0.22400
C512        C  0.15281400  0.01258309  0.27378154    -0.22400
C513        C  0.15165626  0.01249250  0.23836557    -0.22400
C514        C  0.26879530  0.98885492  0.35838489    -0.23500
C515        C  0.23643326  0.98813450  0.35963886    -0.23500
C516        C  0.26189966  0.98610096  0.14529496    -0.23500
C517        C  0.22951291  0.98578096  0.14660725    -0.23500
C518        C  0.30784054  0.00060399  0.31280890    -0.18800
C519        C  0.30395483  0.99850820  0.18729773    -0.18800
C520        C  0.18950720  0.99791142  0.19179611    -0.18800
C521        C  0.19361271  0.99834463  0.31726064    -0.18800
H522        H  0.36502974  0.02098006  0.28145931     0.14100
H523        H  0.36294956  0.01982884  0.21347749     0.14100
H524        H  0.13356301  0.01939691  0.29084109     0.14100
H525        H  0.13133990  0.01921338  0.22286311     0.14100
H526        H  0.28464583  0.98478301  0.37988371     0.12300
H527        H  0.22239173  0.98347033  0.38228622     0.12300
H528        H  0.27629788  0.98123725  0.12274665     0.12300
H529        H  0.21401131  0.98069571  0.12525479     0.12300
H530        H  0.27523918  0.98796941  0.25142337     0.25600
H531        H  0.22280281  0.98616694  0.25337002     0.25600
C532        C  0.16385879  0.99924849  0.16561666    -0.06700
C533        C  0.14427225  0.97334326  0.16208939    -0.17800
C534        C  0.12080221  0.97274421  0.13668345     0.10500
C535        C  0.11729100  0.49832182  0.11341746    -0.06600
C536        C  0.13659890  0.52448674  0.11759530    -0.17800
C537        C  0.15943095  0.52539328  0.14359236     0.10600
S538        S  0.09569574  0.93910960  0.13624944    -0.32800
S539        S  0.18247371  0.56038824  0.14708354    -0.32800
H540        H  0.18693154  0.55881716  0.18293542     0.28600
H541        H  0.06770957  0.95702945  0.13072967     0.28600
H542        H  0.14728505  0.95346225  0.17936774     0.19200
H543        H  0.13415534  0.54437160  0.10025483     0.19200
C544        C  0.12205660  0.99658623  0.39609026    -0.06700
C545        C  0.13929496  0.52403308  0.39073952    -0.17800
C546        C  0.16263130  0.52537813  0.36531162     0.10500
C547        C  0.16942213  0.99848498  0.34490614    -0.06600
C548        C  0.15250656  0.97101240  0.35018795    -0.17800
C549        C  0.12871139  0.96982242  0.37511630     0.10600
S550        S  0.18294005  0.56199576  0.36057306    -0.32800
S551        S  0.10715828  0.93385873  0.37757821    -0.32800
H552        H  0.07735176  0.94936605  0.37808107     0.28600
H553        H  0.19182762  0.55819398  0.32592145     0.28600
H554        H  0.13466615  0.54472582  0.40655144     0.19200
H555        H  0.15753828  0.95047929  0.33423249     0.19200
C556        C  0.32802252  0.99873614  0.15937884    -0.06700
C557        C  0.32992004  0.52553833  0.13857806    -0.17800
C558        C  0.35269701  0.52739340  0.11254219     0.10500
C559        C  0.37431743  0.50175050  0.10689503    -0.06600
C560        C  0.37221924  0.97494792  0.12792614    -0.17800
C561        C  0.34929537  0.97308681  0.15379190     0.10600
S562        S  0.35148183  0.56236366  0.08642672    -0.32800
S563        S  0.34828247  0.93730050  0.17869194    -0.32800
H564        H  0.31551904  0.93817629  0.18462697     0.28600
H565        H  0.38150958  0.57145666  0.09730725     0.28600
H566        H  0.31348030  0.54520860  0.14274186     0.19200
H567        H  0.38842184  0.95505116  0.12404136     0.19200
C568        C  0.38066536  0.99943212  0.39025446    -0.06700
C569        C  0.36079463  0.52628435  0.38621849    -0.17800
C570        C  0.33759129  0.52775544  0.36058572     0.10500
C571        C  0.33355489  0.00154964  0.33874344    -0.06600
C572        C  0.35369640  0.97501333  0.34213235    -0.17800
C573        C  0.37750346  0.97386612  0.36710687     0.10600
S574        S  0.31351535  0.56339666  0.35757324    -0.32800
S575        S  0.40366147  0.93968622  0.36691815    -0.32800
H576        H  0.43112660  0.95691232  0.37257101     0.28600
H577        H  0.30694234  0.56110495  0.32218277     0.28600
H578        H  0.36301427  0.54622632  0.40345605     0.19200
H579        H  0.35092528  0.95509166  0.32496496     0.19200
C580        C  0.49853797  0.66836955  0.15993877    -0.06700
C581        C  0.47064128  0.65225630  0.15408367    -0.17800
C582        C  0.46877589  0.62959003  0.12800874     0.10500
C583        C  0.99563956  0.62231180  0.10736213    -0.06600
C584        C  0.02360274  0.63863006  0.11349173    -0.17800
C585        C  0.02534630  0.66146650  0.13941679     0.10600
S586        S  0.43173137  0.61033567  0.12346075    -0.32800
S587        S  0.06226124  0.68124316  0.14458351    -0.32800
H588        H  0.05910736  0.68792420  0.17990124     0.28600
H589        H  0.42595000  0.62346647  0.09071830     0.28600
H590        H  0.45004253  0.65761435  0.16986489     0.19200
H591        H  0.04440559  0.63367493  0.09791985     0.19200
C592        C  0.50125740  0.66465342  0.33947478    -0.06700
C593        C  0.47297092  0.64941425  0.34608626    -0.17800
C594        C  0.47091646  0.62681991  0.37216079     0.10500
C595        C  0.49806577  0.61856082  0.39197091    -0.06600
C596        C  0.02654674  0.63353993  0.38460918    -0.17800
C597        C  0.02843826  0.65641663  0.35882163     0.10600
S598        S  0.43296398  0.60959170  0.37838746    -0.32800
S599        S  0.06603949  0.67468585  0.35270642    -0.32800
H600        H  0.06132661  0.68444414  0.31851740     0.28600
H601        H  0.42890869  0.62349374  0.41112350     0.28600
H602        H  0.45207789  0.65575316  0.33124521     0.19200
H603        H  0.04760922  0.62775127  0.39937535     0.19200
C604        C  0.49982152  0.83221072  0.16367529    -0.06700
C605        C  0.02672100  0.83468965  0.14296042    -0.17800
C606        C  0.02768409  0.85647258  0.11602821     0.10500
C607        C  0.00141584  0.87724761  0.11012746    -0.06600
C608        C  0.47477062  0.87512101  0.13154783    -0.17800
C609        C  0.47356793  0.85271622  0.15792633     0.10600
S610        S  0.06237217  0.85481765  0.08909840    -0.32800
S611        S  0.43784593  0.85138928  0.18318827    -0.32800
H612        H  0.43937518  0.81886814  0.18991482     0.28600
H613        H  0.04504572  0.85428877  0.05816859     0.28600
H614        H  0.04676896  0.81872970  0.14715149     0.19200
H615        H  0.45451664  0.89083707  0.12752747     0.19200
C616        C  0.50299011  0.87463380  0.39653884    -0.06700
C617        C  0.47599769  0.87195323  0.37576563    -0.17800
C618        C  0.47456667  0.84939062  0.34949878     0.10500
C619        C  0.50090555  0.82906947  0.34328595    -0.06600
C620        C  0.02804817  0.83184830  0.36356256    -0.17800
C621        C  0.02930422  0.85399297  0.39027606     0.10600
S622        S  0.43851406  0.84794012  0.32481906    -0.32800
S623        S  0.06461249  0.85334057  0.41613680    -0.32800
H624        H  0.04802435  0.85281852  0.44756299     0.28600
H625        H  0.44078726  0.81578047  0.31625305     0.28600
H626        H  0.45566360  0.88749666  0.38008510     0.19200
H627        H  0.04822296  0.81613623  0.35891286     0.19200
N628        N  0.43118044  0.51420163  0.96078431    -0.06700
N629        N  0.41362744  0.52510496  0.93515188    -0.58800
N630        N  0.42990491  0.98436916  0.54044451    -0.06300
N631        N  0.41068049  0.97433752  0.56465444    -0.60900
N632        N  0.42943163  0.51536719  0.53976212    -0.05900
N633        N  0.40987058  0.52695428  0.56337023    -0.58800
N634        N  0.43149381  0.98320131  0.96113224    -0.05600
N635        N  0.41406466  0.97243052  0.93568211    -0.61300
C636        C  0.40330530  0.99882885  0.91943429     0.95500
C637        C  0.39826926  0.50117762  0.57879654     0.95300
N638        N  0.01526177  0.93115581  0.54245324    -0.06900
N639        N  0.02665083  0.91277142  0.56707153    -0.59400
N640        N  0.48528654  0.92991698  0.96300616    -0.05000
N641        N  0.47534251  0.91062711  0.93881189    -0.60600
N642        N  0.01635002  0.93001833  0.96340463    -0.06900
N643        N  0.02809807  0.91086405  0.93949637    -0.59600
N644        N  0.48419538  0.93097477  0.54224049    -0.04600
N645        N  0.47389816  0.91223092  0.56673975    -0.60700
Mn646      Mn  0.45698614  0.95640337  0.50177227     1.18400
C647        C  0.00070275  0.90093253  0.58198678     0.97600
C648        C  0.50230287  0.89877506  0.92437367     0.98300
N649        N  0.48151063  0.56742525  0.54014605    -0.06900
N650        N  0.46999349  0.58658610  0.56416855    -0.63200
N651        N  0.01374517  0.56609120  0.96151719    -0.05700
N652        N  0.02443305  0.58410792  0.93661910    -0.63900
N653        N  0.48270022  0.56615803  0.96101751    -0.06400
N654        N  0.47173493  0.58414091  0.93579516    -0.63500
N655        N  0.01256680  0.56719059  0.54063130    -0.05300
N656        N  0.02272998  0.58617935  0.56494711    -0.64200
Mn657      Mn  0.45556587  0.54141253  0.00047012     1.10700
C658        C  0.99593111  0.59804834  0.57964977     0.98800
C659        C  0.49795241  0.59516721  0.92056215     0.98900
N660        N  0.06808621  0.98220097  0.96384055    -0.06400
N661        N  0.08727289  0.97086072  0.93976752    -0.61800
N662        N  0.06631721  0.51403198  0.54259122    -0.05700
N663        N  0.08384009  0.52476389  0.56798167    -0.58500
N664        N  0.06677287  0.98303958  0.54276701    -0.08500
N665        N  0.08457635  0.97208939  0.56818530    -0.61400
N666        N  0.06752049  0.51317620  0.96341520    -0.06000
N667        N  0.08621367  0.52351327  0.93893592    -0.58500
Mn668      Mn  0.04220095  0.95601651  0.50307374     1.20200
Mn669      Mn  0.04070074  0.54080296  0.00205761     1.10100
Cl670      Cl  0.99883144  0.49864451  0.50189520    -0.86500
C671        C  0.09819527  0.99684953  0.92411503     0.95800
C672        C  0.09483489  0.49832839  0.58401907     0.95600
N673        N  0.49832292  0.79732314  0.75282277    -0.37200
N674        N  0.50182616  0.74748236  0.80489449    -0.57700
N675        N  0.49806890  0.69996274  0.75058164    -0.37200
N676        N  0.49982713  0.74964111  0.69845205    -0.57700
C677        C  0.50460978  0.81450538  0.78126668     0.26400
C678        C  0.50400070  0.81559149  0.72509626     0.26400
C679        C  0.50375617  0.68111038  0.77806737     0.26400
C680        C  0.50264851  0.68228499  0.72189018     0.26400
C681        C  0.49780611  0.77277275  0.82586022     0.35000
C682        C  0.49803630  0.72167511  0.82470375     0.35000
C683        C  0.49560131  0.77566219  0.67880636     0.35000
C684        C  0.49522325  0.72463823  0.67759333     0.35000
C685        C  0.51394803  0.84426896  0.77151805    -0.22400
C686        C  0.51359167  0.84494193  0.73607226    -0.22400
C687        C  0.51154753  0.65087573  0.76669739    -0.22400
C688        C  0.51086240  0.65161486  0.73127050    -0.22400
C689        C  0.49185937  0.76294889  0.85923355    -0.23500
C690        C  0.49209717  0.73061359  0.85851737    -0.23500
C691        C  0.48863911  0.76711762  0.64520287    -0.23500
C692        C  0.48844428  0.73481031  0.64442761    -0.23500
C693        C  0.50084526  0.80460688  0.81579983    -0.18800
C694        C  0.49950234  0.80701362  0.69020952    -0.18800
C695        C  0.49864646  0.69267597  0.68747178    -0.18800
C696        C  0.50106438  0.69006830  0.81315146    -0.18800
H697        H  0.52028875  0.86355772  0.78821584     0.14100
H698        H  0.51958855  0.86484508  0.72019637     0.14100
H699        H  0.51715679  0.63037480  0.78229863     0.14100
H700        H  0.51584799  0.63177741  0.71435401     0.14100
H701        H  0.48789227  0.77754656  0.88181542     0.12300
H702        H  0.48833817  0.71542555  0.88042239     0.12300
H703        H  0.48433428  0.78253646  0.62343475     0.12300
H704        H  0.48400072  0.72044987  0.62194827     0.12300
H705        H  0.48905185  0.77502262  0.75244832     0.25600
H706        H  0.49011227  0.72318415  0.75135087     0.25600
N707        N  0.29742842  0.99759768  0.75040703    -0.37200
N708        N  0.25035932  0.99998394  0.80546629    -0.57700
N709        N  0.20010721  0.99591870  0.75420810    -0.37200
N710        N  0.24700387  0.99881003  0.69918287    -0.57700
C711        C  0.31593832  0.00434085  0.77769064     0.26400
C712        C  0.31420068  0.00343494  0.72155265     0.26400
C713        C  0.18306889  0.00244699  0.78295276     0.26400
C714        C  0.18120819  0.00223203  0.72684886     0.26400
C715        C  0.27674345  0.99605510  0.82469580     0.35000
C716        C  0.22571369  0.99490844  0.82667969     0.35000
C717        C  0.27207701  0.99407652  0.67803448     0.35000
C718        C  0.22096358  0.99357496  0.68010424     0.35000
C719        C  0.34503267  0.01417151  0.76603686    -0.22400
C720        C  0.34394202  0.01358646  0.73061035    -0.22400
C721        C  0.15281394  0.01258294  0.77378171    -0.22400
C722        C  0.15165613  0.01249209  0.73836574    -0.22400
C723        C  0.26879541  0.98885495  0.85838493    -0.23500
C724        C  0.23643335  0.98813480  0.85963902    -0.23500
C725        C  0.26189939  0.98610102  0.64529478    -0.23500
C726        C  0.22951264  0.98578119  0.64660717    -0.23500
C727        C  0.30784066  0.00060362  0.81280880    -0.18800
C728        C  0.30395475  0.99850762  0.68729756    -0.18800
C729        C  0.18950706  0.99791106  0.69179629    -0.18800
C730        C  0.19361277  0.99834484  0.81726081    -0.18800
H731        H  0.36502995  0.02097934  0.78145898     0.14100
H732        H  0.36294957  0.01982808  0.71347717     0.14100
H733        H  0.13356298  0.01939675  0.79084122     0.14100
H734        H  0.13133969  0.01921276  0.72286328     0.14100
H735        H  0.28464597  0.98478293  0.87988368     0.12300
H736        H  0.22239185  0.98347069  0.88228642     0.12300
H737        H  0.27629751  0.98123751  0.62274635     0.12300
H738        H  0.21401094  0.98069631  0.62525470     0.12300
H739        H  0.27523932  0.98796885  0.75142338     0.25600
H740        H  0.22280257  0.98616718  0.75337018     0.25600
C741        C  0.16385860  0.99924822  0.66561688    -0.06700
C742        C  0.14427209  0.97334295  0.66208954    -0.17800
C743        C  0.12080207  0.97274395  0.63668359     0.10500
C744        C  0.11729101  0.49832133  0.61341744    -0.06600
C745        C  0.13659872  0.52448634  0.61759550    -0.17800
C746        C  0.15943066  0.52539288  0.64359264     0.10600
S747        S  0.09569559  0.93910937  0.63624944    -0.32800
S748        S  0.18247336  0.56038786  0.64708379    -0.32800
H749        H  0.18693136  0.55881671  0.68293564     0.28600
H750        H  0.06770941  0.95702920  0.63072966     0.28600
H751        H  0.14728489  0.95346192  0.67936778     0.19200
H752        H  0.13415515  0.54437126  0.60025512     0.19200
C753        C  0.12205660  0.99658649  0.89609035    -0.06700
C754        C  0.13929525  0.52403310  0.89074018    -0.17800
C755        C  0.16263158  0.52537814  0.86531227     0.10500
C756        C  0.16942218  0.99848521  0.84490628    -0.06600
C757        C  0.15250647  0.97101272  0.85018793    -0.17800
C758        C  0.12871131  0.96982273  0.87511626     0.10600
S759        S  0.18294064  0.56199559  0.86057404    -0.32800
S760        S  0.10715832  0.93385900  0.87757820    -0.32800
H761        H  0.07735179  0.94936627  0.87808129     0.28600
H762        H  0.19182654  0.55819453  0.82592183     0.28600
H763        H  0.13466660  0.54472571  0.90655229     0.19200
H764        H  0.15753813  0.95047964  0.83423240     0.19200
C765        C  0.32802237  0.99873572  0.65937858    -0.06700
C766        C  0.32991956  0.52553796  0.63857756    -0.17800
C767        C  0.35269649  0.52739301  0.61254164     0.10500
C768        C  0.37431725  0.50175033  0.60689480    -0.06600
C769        C  0.37221938  0.97494786  0.62792609    -0.17800
C770        C  0.34929549  0.97308659  0.65379180     0.10600
S771        S  0.35148101  0.56236305  0.58642588    -0.32800
S772        S  0.34828280  0.93730032  0.67869192    -0.32800
H773        H  0.31551921  0.93817552  0.68462595     0.28600
H774        H  0.38150850  0.57145659  0.59730672     0.28600
H775        H  0.31347958  0.54520814  0.64274116     0.19200
H776        H  0.38842216  0.95505122  0.62404139     0.19200
C777        C  0.38066546  0.99943170  0.89025445    -0.06700
C778        C  0.36079507  0.52628462  0.88621802    -0.17800
C779        C  0.33759174  0.52775581  0.86058524     0.10500
C780        C  0.33355506  0.00154923  0.83874332    -0.06600
C781        C  0.35369635  0.97501280  0.84213251    -0.17800
C782        C  0.37750333  0.97386557  0.86710710     0.10600
S783        S  0.31351638  0.56339739  0.85757218    -0.32800
S784        S  0.40366113  0.93968553  0.86691864    -0.32800
H785        H  0.43112637  0.95691159  0.87257103     0.28600
H786        H  0.30694419  0.56110568  0.82218152     0.28600
H787        H  0.36301503  0.54622677  0.90345527     0.19200
H788        H  0.35092510  0.95509100  0.82496525     0.19200
C789        C  0.49853759  0.66836965  0.65993856    -0.06700
C790        C  0.47064091  0.65225645  0.65408322    -0.17800
C791        C  0.46877562  0.62959019  0.62800828     0.10500
C792        C  0.99563953  0.62231180  0.60736205    -0.06600
C793        C  0.02360277  0.63862988  0.61349198    -0.17800
C794        C  0.02534624  0.66146635  0.63941702     0.10600
S795        S  0.43173100  0.61033597  0.62345995    -0.32800
S796        S  0.06226132  0.68124273  0.64458424    -0.32800
H797        H  0.05910697  0.68792426  0.67990182     0.28600
H798        H  0.42594988  0.62346692  0.59071753     0.28600
H799        H  0.45004205  0.65761456  0.66986428     0.19200
H800        H  0.04440577  0.63367456  0.59792037     0.19200
C801        C  0.50125695  0.66465350  0.83947454    -0.06700
C802        C  0.47297053  0.64941422  0.84608596    -0.17800
C803        C  0.47091610  0.62681987  0.87216050     0.10500
C804        C  0.49806538  0.61856090  0.89197074    -0.06600
C805        C  0.02654625  0.63354022  0.88460931    -0.17800
C806        C  0.02843774  0.65641685  0.85882170     0.10600
S807        S  0.43296360  0.60959172  0.87838719    -0.32800
S808        S  0.06603887  0.67468638  0.85270665    -0.32800
H809        H  0.06132593  0.68444513  0.81851779     0.28600
H810        H  0.42890839  0.62349364  0.91112331     0.28600
H811        H  0.45207751  0.65575305  0.83124486     0.19200
H812        H  0.04760871  0.62775177  0.89937564     0.19200
C813        C  0.49982125  0.83221087  0.66367521    -0.06700
C814        C  0.02672068  0.83468963  0.64296038    -0.17800
C815        C  0.02768382  0.85647255  0.61602817     0.10500
C816        C  0.00141567  0.87724771  0.61012751    -0.06600
C817        C  0.47477052  0.87512125  0.63154772    -0.17800
C818        C  0.47356770  0.85271636  0.65792613     0.10600
S819        S  0.06237176  0.85481726  0.58909813    -0.32800
S820        S  0.43784554  0.85138934  0.68318775    -0.32800
H821        H  0.43937491  0.81886825  0.68991455     0.28600
H822        H  0.04504511  0.85428840  0.55816846     0.28600
H823        H  0.04676855  0.81872958  0.64715138     0.19200
H824        H  0.45451660  0.89083739  0.62752735     0.19200
C825        C  0.50299039  0.87463377  0.89653896    -0.06700
C826        C  0.47599816  0.87195357  0.87576542    -0.17800
C827        C  0.47456711  0.84939094  0.84949858     0.10500
C828        C  0.50090583  0.82906955  0.84328593    -0.06600
C829        C  0.02804800  0.83184812  0.86356284    -0.17800
C830        C  0.02930402  0.85399276  0.89027638     0.10600
S831        S  0.43851465  0.84794066  0.82481857    -0.32800
S832        S  0.06461214  0.85334016  0.91613732    -0.32800
H833        H  0.04802379  0.85281834  0.94756339     0.28600
H834        H  0.44078713  0.81578064  0.81625403     0.28600
H835        H  0.45566424  0.88749722  0.88008469     0.19200
H836        H  0.04822272  0.81613594  0.85891325     0.19200
N837        N  0.93118067  0.01420173  0.46078422    -0.06700
N838        N  0.91362762  0.02510512  0.43515186    -0.58800
N839        N  0.92990486  0.48436900  0.04044466    -0.06300
N840        N  0.91068063  0.47433740  0.06465481    -0.60900
N841        N  0.92943155  0.01536726  0.03976214    -0.05900
N842        N  0.90987048  0.02695434  0.06337021    -0.58800
N843        N  0.93149381  0.48320149  0.46113215    -0.05600
N844        N  0.91406458  0.47243071  0.43568209    -0.61300
C845        C  0.90330524  0.49882906  0.41943428     0.95500
C846        C  0.89826913  0.00117769  0.07879648     0.95300
N847        N  0.51526185  0.43115602  0.04245334    -0.06900
N848        N  0.52665094  0.41277159  0.06707159    -0.59400
N849        N  0.98528649  0.42991705  0.46300607    -0.05000
N850        N  0.97534233  0.41062710  0.43881196    -0.60600
N851        N  0.51635001  0.43001809  0.46340464    -0.06900
N852        N  0.52809800  0.41086373  0.43949644    -0.59600
N853        N  0.98419547  0.43097474  0.04224077    -0.04600
N854        N  0.97389826  0.41223075  0.06673992    -0.60700
Mn855      Mn  0.95698615  0.45640321  0.00177249     1.18400
C856        C  0.50070287  0.40093265  0.08198685     0.97600
C857        C  0.00230260  0.39877496  0.42437367     0.98300
N858        N  0.98151058  0.06742518  0.04014639    -0.06900
N859        N  0.96999346  0.08658581  0.06416913    -0.63200
N860        N  0.51374570  0.06609122  0.46151751    -0.05700
N861        N  0.52443369  0.08410786  0.43661940    -0.63900
N862        N  0.98270069  0.06615803  0.46101780    -0.06400
N863        N  0.97173554  0.08414094  0.43579540    -0.63500
N864        N  0.51256666  0.06719051  0.04063151    -0.05300
N865        N  0.52272984  0.08617913  0.06494747    -0.64200
Mn866      Mn  0.95556614  0.04141248  0.50047017     1.10700
C867        C  0.49593096  0.09804806  0.07965021     0.98800
C868        C  0.99795311  0.09516706  0.42056241     0.98900
N869        N  0.56808632  0.48220077  0.46384055    -0.06400
N870        N  0.58727306  0.47086050  0.43976760    -0.61800
N871        N  0.56631699  0.01403195  0.04259156    -0.05700
N872        N  0.58383981  0.02476389  0.06798205    -0.58500
N873        N  0.56677284  0.48303999  0.04276684    -0.08500
N874        N  0.58457647  0.47208994  0.06818508    -0.61400
N875        N  0.56752077  0.01317606  0.46341527    -0.06000
N876        N  0.58621383  0.02351311  0.43893585    -0.58500
Mn877      Mn  0.54220094  0.45601673  0.00307374     1.20200
Mn878      Mn  0.54070108  0.04080281  0.50205785     1.10100
Cl879      Cl  0.49883135  0.99864437  0.00189526    -0.86500
C880        C  0.59819545  0.49684929  0.42411510     0.95800
C881        C  0.59483468  0.99832842  0.08401945     0.95600
N882        N  0.99832258  0.29732306  0.25282287    -0.37200
N883        N  0.00182632  0.24748229  0.30489472    -0.57700
N884        N  0.99806952  0.19996263  0.25058201    -0.37200
N885        N  0.99982709  0.24964110  0.19845230    -0.57700
C886        C  0.00460941  0.31450532  0.28126676     0.26400
C887        C  0.00400038  0.31559144  0.22509637     0.26400
C888        C  0.00375700  0.18111038  0.27806776     0.26400
C889        C  0.00264927  0.18228499  0.22189054     0.26400
C890        C  0.99780549  0.27277272  0.32586023     0.35000
C891        C  0.99803620  0.22167508  0.32470397     0.35000
C892        C  0.99560094  0.27566212  0.17880659     0.35000
C893        C  0.99522315  0.22463816  0.17759370     0.35000
C894        C  0.01394767  0.34426893  0.27151819    -0.22400
C895        C  0.01359134  0.34494190  0.23607239    -0.22400
C896        C  0.01154881  0.15087587  0.26669777    -0.22400
C897        C  0.01086356  0.15161499  0.23127086    -0.22400
C898        C  0.99185795  0.26294893  0.35923340    -0.23500
C899        C  0.99209613  0.23061362  0.35851739    -0.23500
C900        C  0.98863840  0.26711746  0.14520322    -0.23500
C901        C  0.98844375  0.23481014  0.14442805    -0.23500
C902        C  0.00084470  0.30460683  0.31579986    -0.18800
C903        C  0.99950206  0.30701354  0.19020964    -0.18800
C904        C  0.99864679  0.19267592  0.18747213    -0.18800
C905        C  0.00106487  0.19006829  0.31315183    -0.18800
H906        H  0.02028838  0.36355768  0.28821600     0.14100
H907        H  0.01958828  0.36484505  0.22019652     0.14100
H908        H  0.01715841  0.13037500  0.28229904     0.14100
H909        H  0.01584935  0.13177757  0.21435433     0.14100
H910        H  0.98789003  0.27754670  0.38181507     0.12300
H911        H  0.98833668  0.21542564  0.38042237     0.12300
H912        H  0.98433327  0.28253622  0.12343510     0.12300
H913        H  0.98400011  0.22044964  0.12194876     0.12300
H914        H  0.98905151  0.27502241  0.25244845     0.25600
H915        H  0.99011258  0.22318378  0.25135119     0.25600
N916        N  0.79742834  0.49759792  0.25040721    -0.37200
N917        N  0.75035930  0.49998339  0.30546637    -0.57700
N918        N  0.70010719  0.49591876  0.25420802    -0.37200
N919        N  0.74700386  0.49881068  0.19918293    -0.57700
C920        C  0.81593816  0.50434116  0.27769088     0.26400
C921        C  0.81420057  0.50343549  0.22155291     0.26400
C922        C  0.68306891  0.50244692  0.28295275     0.26400
C923        C  0.68120824  0.50223251  0.22684881     0.26400
C924        C  0.77674340  0.49605465  0.32469594     0.35000
C925        C  0.72571364  0.49490789  0.32667972     0.35000
C926        C  0.77207707  0.49407688  0.17803469     0.35000
C927        C  0.72096363  0.49357529  0.18010431     0.35000
C928        C  0.84503239  0.51417228  0.26603718    -0.22400
C929        C  0.84394179  0.51358730  0.23061067    -0.22400
C930        C  0.65281406  0.51258322  0.27378176    -0.22400
C931        C  0.65165624  0.51249271  0.23836578    -0.22400
C932        C  0.76879535  0.48885446  0.35838508    -0.23500
C933        C  0.73643328  0.48813420  0.35963907    -0.23500
C934        C  0.76189955  0.48610096  0.14529508    -0.23500
C935        C  0.72951279  0.48578102  0.14660740    -0.23500
C936        C  0.80784056  0.50060354  0.31280898    -0.18800
C937        C  0.80395477  0.49850811  0.18729782    -0.18800
C938        C  0.68950709  0.49791161  0.19179622    -0.18800
C939        C  0.69361275  0.49834449  0.31726081    -0.18800
H940        H  0.86502955  0.52098034  0.28145933     0.14100
H941        H  0.86294929  0.51982919  0.21347752     0.14100
H942        H  0.63356318  0.51939710  0.29084139     0.14100
H943        H  0.63133987  0.51921367  0.22286338     0.14100
H944        H  0.78464587  0.48478263  0.37988388     0.12300
H945        H  0.72239174  0.48347013  0.38228646     0.12300
H946        H  0.77629773  0.48123721  0.12274676     0.12300
H947        H  0.71401114  0.48069579  0.12525500     0.12300
H948        H  0.77523929  0.48796878  0.25142343     0.25600
H949        H  0.72280249  0.48616702  0.25337002     0.25600
C950        C  0.66385867  0.49924886  0.16561673    -0.06700
C951        C  0.64427177  0.47334389  0.16208967    -0.17800
C952        C  0.62080180  0.47274495  0.13668365     0.10500
C953        C  0.61729090  0.99832139  0.11341772    -0.06600
C954        C  0.63659845  0.02448652  0.11759581    -0.17800
C955        C  0.65943065  0.02539302  0.14359267     0.10600
S956        S  0.59569475  0.43911080  0.13624997    -0.32800
S957        S  0.68247325  0.06038809  0.14708382    -0.32800
H958        H  0.68693091  0.05881704  0.18293572     0.28600
H959        H  0.56770890  0.45703102  0.13072971     0.28600
H960        H  0.64728422  0.45346299  0.17936825     0.19200
H961        H  0.63415457  0.04437158  0.10025562     0.19200
C962        C  0.62205679  0.49658623  0.39609051    -0.06700
C963        C  0.63929484  0.02403297  0.39073937    -0.17800
C964        C  0.66263109  0.02537804  0.36531140     0.10500
C965        C  0.66942221  0.49848489  0.34490633    -0.06600
C966        C  0.65250682  0.47101225  0.35018839    -0.17800
C967        C  0.62871171  0.46982231  0.37511677     0.10600
S968        S  0.68293988  0.06199566  0.36057304    -0.32800
S969        S  0.60715876  0.43385854  0.37757898    -0.32800
H970        H  0.57735216  0.44936573  0.37808155     0.28600
H971        H  0.69182802  0.05819380  0.32592161     0.28600
H972        H  0.63466618  0.04472563  0.40655142     0.19200
H973        H  0.65753859  0.45047907  0.33423308     0.19200
C974        C  0.82802251  0.49873611  0.15937896    -0.06700
C975        C  0.82991983  0.02553834  0.13857781    -0.17800
C976        C  0.85269667  0.02739330  0.11254180     0.10500
C977        C  0.87431722  0.00175046  0.10689478    -0.06600
C978        C  0.87221914  0.47494782  0.12792619    -0.17800
C979        C  0.84929519  0.47308668  0.15379186     0.10600
S980        S  0.85148115  0.06236329  0.08642593    -0.32800
S981        S  0.84828180  0.43730011  0.17869142    -0.32800
H982        H  0.81551837  0.43817618  0.18462645     0.28600
H983        H  0.88150874  0.07145682  0.09730647     0.28600
H984        H  0.81347997  0.04520856  0.14274152     0.19200
H985        H  0.88842158  0.45505096  0.12404123     0.19200
C986        C  0.88066532  0.49943190  0.39025454    -0.06700
C987        C  0.86079481  0.02628463  0.38621828    -0.17800
C988        C  0.83759139  0.02775577  0.36058556     0.10500
C989        C  0.83355491  0.50154929  0.33874351    -0.06600
C990        C  0.85369658  0.47501311  0.34213232    -0.17800
C991        C  0.87750364  0.47386598  0.36710682     0.10600
S992        S  0.81351561  0.06339716  0.35757297    -0.32800
S993        S  0.90366196  0.43968630  0.36691790    -0.32800
H994        H  0.93112694  0.45691256  0.37257104     0.28600
H995        H  0.80694234  0.06110530  0.32218258     0.28600
H996        H  0.86301459  0.04622665  0.40345575     0.19200
H997        H  0.85092559  0.45509145  0.32496482     0.19200
C998        C  0.99853777  0.16836958  0.15993889    -0.06700
C999        C  0.97064140  0.15225558  0.15408453    -0.17800
C1000       C  0.96877606  0.12958907  0.12800982     0.10500
C1001       C  0.49563942  0.12231153  0.10736248    -0.06600
C1002       C  0.52360230  0.13863049  0.11349135    -0.17800
C1003       C  0.52534588  0.16146704  0.13941627     0.10600
S1004       S  0.93173196  0.11033362  0.12346302    -0.32800
S1005       S  0.56226052  0.18124441  0.14458220    -0.32800
H1006       H  0.55910719  0.18792524  0.17990004     0.28600
H1007       H  0.92594938  0.12346415  0.09072070     0.28600
H1008       H  0.95004283  0.15761316  0.16986623     0.19200
H1009       H  0.54440495  0.13367577  0.09791897     0.19200
C1010       C  0.00125757  0.16465355  0.33947499    -0.06700
C1011       C  0.97297144  0.14941354  0.34608574    -0.17800
C1012       C  0.97091712  0.12681903  0.37216013     0.10500
C1013       C  0.99806618  0.11856079  0.39197105    -0.06600
C1014       C  0.52654683  0.13354080  0.38461015    -0.17800
C1015       C  0.52843827  0.15641751  0.35882259     0.10600
S1016       S  0.93296524  0.10958919  0.37838539    -0.32800
S1017       S  0.56603920  0.17468760  0.35270820    -0.32800
H1018       H  0.56132674  0.18444570  0.31851905     0.28600
H1019       H  0.92890800  0.12349174  0.41112091     0.28600
H1020       H  0.95207857  0.15575177  0.33124410     0.19200
H1021       H  0.54760914  0.12775273  0.39937684     0.19200
C1022       C  0.99982105  0.33221073  0.16367529    -0.06700
C1023       C  0.52672067  0.33468972  0.14296060    -0.17800
C1024       C  0.52768404  0.35647285  0.11602862     0.10500
C1025       C  0.50141577  0.37724782  0.11012762    -0.06600
C1026       C  0.97477043  0.37512109  0.13154772    -0.17800
C1027       C  0.97356749  0.35271617  0.15792607     0.10600
S1028       S  0.56237256  0.35481823  0.08909945    -0.32800
S1029       S  0.93784523  0.35138911  0.18318753    -0.32800
H1030       H  0.93937460  0.31886803  0.18991437     0.28600
H1031       H  0.54504659  0.35428908  0.05816934     0.28600
H1032       H  0.54676860  0.31872982  0.14715186     0.19200
H1033       H  0.95451646  0.39083712  0.12752722     0.19200
C1034       C  0.00298991  0.37463361  0.39653901    -0.06700
C1035       C  0.97599747  0.37195320  0.37576580    -0.17800
C1036       C  0.97456638  0.34939067  0.34949887     0.10500
C1037       C  0.00090520  0.32906947  0.34328594    -0.06600
C1038       C  0.52804785  0.33184825  0.36356253    -0.17800
C1039       C  0.52930392  0.35399275  0.39027618     0.10600
S1040       S  0.93851382  0.34794044  0.32481906    -0.32800
S1041       S  0.56461226  0.35334020  0.41613682    -0.32800
H1042       H  0.54802423  0.35281815  0.44756307     0.28600
H1043       H  0.94078695  0.31578088  0.31625265     0.28600
H1044       H  0.95566347  0.38749668  0.38008531     0.19200
H1045       H  0.54822268  0.31613626  0.35891272     0.19200
N1046       N  0.93118049  0.01420172  0.96078430    -0.06700
N1047       N  0.91362746  0.02510508  0.93515192    -0.58800
N1048       N  0.92990496  0.48436916  0.54044455    -0.06300
N1049       N  0.91068071  0.47433747  0.56465464    -0.60900
N1050       N  0.92943169  0.01536726  0.53976213    -0.05900
N1051       N  0.90987057  0.02695435  0.56337018    -0.58800
N1052       N  0.93149381  0.48320132  0.96113222    -0.05600
N1053       N  0.91406471  0.47243050  0.93568206    -0.61300
C1054       C  0.90330532  0.49882881  0.91943423     0.95500
C1055       C  0.89826907  0.00117768  0.57879630     0.95300
N1056       N  0.51526179  0.43115590  0.54245329    -0.06900
N1057       N  0.52665085  0.41277157  0.56707164    -0.59400
N1058       N  0.98528655  0.42991700  0.96300625    -0.05000
N1059       N  0.97534244  0.41062704  0.93881210    -0.60600
N1060       N  0.51635004  0.43001824  0.96340471    -0.06900
N1061       N  0.52809806  0.41086385  0.93949651    -0.59600
N1062       N  0.98419544  0.43097484  0.54224058    -0.04600
N1063       N  0.97389816  0.41223098  0.56673982    -0.60700
Mn1064     Mn  0.95698619  0.45640338  0.50177232     1.18400
C1065       C  0.50070276  0.40093266  0.58198687     0.97600
C1066       C  0.00230274  0.39877487  0.92437389     0.98300
N1067       N  0.98151070  0.06742511  0.54014637    -0.06900
N1068       N  0.96999351  0.08658584  0.56416896    -0.63200
N1069       N  0.51374544  0.06609120  0.96151737    -0.05700
N1070       N  0.52443342  0.08410791  0.93661933    -0.63900
N1071       N  0.98270045  0.06615814  0.96101773    -0.06400
N1072       N  0.97173525  0.08414101  0.93579533    -0.63500
N1073       N  0.51256685  0.06719043  0.54063160    -0.05300
N1074       N  0.52273000  0.08617908  0.56494754    -0.64200
Mn1075     Mn  0.95556593  0.04141256  0.00047019     1.10700
C1076       C  0.49593111  0.09804809  0.57965018     0.98800
C1077       C  0.99795279  0.09516721  0.92056233     0.98900
N1078       N  0.56808623  0.48220098  0.96384050    -0.06400
N1079       N  0.58727307  0.47086075  0.93976763    -0.61800
N1080       N  0.56631724  0.01403178  0.54259140    -0.05700
N1081       N  0.58383999  0.02476359  0.56798202    -0.58500
N1082       N  0.56677291  0.48303972  0.54276689    -0.08500
N1083       N  0.58457652  0.47208961  0.56818512    -0.61400
N1084       N  0.56752058  0.01317609  0.96341531    -0.06000
N1085       N  0.58621366  0.02351317  0.93893592    -0.58500
Mn1086     Mn  0.54220097  0.45601656  0.50307372     1.20200
Mn1087     Mn  0.54070082  0.04080283  0.00205783     1.10100
Cl1088     Cl  0.49883147  0.99864443  0.50189519    -0.86500
C1089       C  0.59819543  0.49684956  0.92411515     0.95800
C1090       C  0.59483477  0.99832805  0.58401934     0.95600
N1091       N  0.99832260  0.29732320  0.75282279    -0.37200
N1092       N  0.00182633  0.24748234  0.80489461    -0.57700
N1093       N  0.99806910  0.19996274  0.75058181    -0.37200
N1094       N  0.99982686  0.24964118  0.69845209    -0.57700
C1095       C  0.00460955  0.31450540  0.78126669     0.26400
C1096       C  0.00400033  0.31559152  0.72509625     0.26400
C1097       C  0.00375643  0.18111041  0.77806755     0.26400
C1098       C  0.00264870  0.18228505  0.72189033     0.26400
C1099       C  0.99780569  0.27277276  0.82586018     0.35000
C1100       C  0.99803609  0.22167512  0.82470384     0.35000
C1101       C  0.99560081  0.27566222  0.67880641     0.35000
C1102       C  0.99522287  0.22463827  0.67759347     0.35000
C1103       C  0.01394785  0.34426893  0.77151805    -0.22400
C1104       C  0.01359143  0.34494190  0.73607223    -0.22400
C1105       C  0.01154796  0.15087584  0.76669757    -0.22400
C1106       C  0.01086274  0.15161498  0.73127066    -0.22400
C1107       C  0.99185824  0.26294897  0.85923337    -0.23500
C1108       C  0.99209622  0.23061366  0.85851729    -0.23500
C1109       C  0.98863829  0.26711760  0.64520302    -0.23500
C1110       C  0.98844358  0.23481029  0.64442780    -0.23500
C1111       C  0.00084497  0.30460687  0.81579981    -0.18800
C1112       C  0.99950188  0.30701364  0.69020953    -0.18800
C1113       C  0.99864639  0.19267603  0.68747192    -0.18800
C1114       C  0.00106448  0.19006833  0.81315164    -0.18800
H1115       H  0.02028867  0.36355764  0.78821585     0.14100
H1116       H  0.01958843  0.36484499  0.72019633     0.14100
H1117       H  0.01715740  0.13037496  0.78229882     0.14100
H1118       H  0.01584841  0.13177753  0.71435417     0.14100
H1119       H  0.98789054  0.27754670  0.88181510     0.12300
H1120       H  0.98833678  0.21542567  0.88042226     0.12300
H1121       H  0.98433317  0.28253642  0.62343491     0.12300
H1122       H  0.98399995  0.22044983  0.62194848     0.12300
H1123       H  0.98905161  0.27502286  0.75244841     0.25600
H1124       H  0.99011243  0.22318396  0.75135103     0.25600
N1125       N  0.79742829  0.49759730  0.75040712    -0.37200
N1126       N  0.75035938  0.49998340  0.80546636    -0.57700
N1127       N  0.70010724  0.49591874  0.75420817    -0.37200
N1128       N  0.74700372  0.49881008  0.69918289    -0.57700
C1129       C  0.81593818  0.50434060  0.77769070     0.26400
C1130       C  0.81420046  0.50343481  0.72155274     0.26400
C1131       C  0.68306894  0.50244699  0.78295288     0.26400
C1132       C  0.68120816  0.50223216  0.72684897     0.26400
C1133       C  0.77674350  0.49605456  0.82469587     0.35000
C1134       C  0.72571373  0.49490806  0.82667977     0.35000
C1135       C  0.77207687  0.49407638  0.67803454     0.35000
C1136       C  0.72096343  0.49357502  0.68010428     0.35000
C1137       C  0.84503240  0.51417162  0.76603690    -0.22400
C1138       C  0.84394170  0.51358662  0.73061041    -0.22400
C1139       C  0.65281399  0.51258304  0.77378191    -0.22400
C1140       C  0.65165611  0.51249227  0.73836594    -0.22400
C1141       C  0.76879546  0.48885449  0.85838504    -0.23500
C1142       C  0.73643339  0.48813440  0.85963911    -0.23500
C1143       C  0.76189924  0.48610084  0.64529486    -0.23500
C1144       C  0.72951248  0.48578110  0.64660725    -0.23500
C1145       C  0.80784066  0.50060320  0.81280885    -0.18800
C1146       C  0.80395460  0.49850745  0.68729766    -0.18800
C1147       C  0.68950693  0.49791119  0.69179636    -0.18800
C1148       C  0.69361283  0.49834476  0.81726093    -0.18800
H1149       H  0.86502960  0.52097966  0.78145900     0.14100
H1150       H  0.86294918  0.51982847  0.71347722     0.14100
H1151       H  0.63356310  0.51939689  0.79084150     0.14100
H1152       H  0.63133968  0.51921303  0.72286354     0.14100
H1153       H  0.78464599  0.48478255  0.87988383     0.12300
H1154       H  0.72239186  0.48347040  0.88228651     0.12300
H1155       H  0.77629734  0.48123725  0.62274646     0.12300
H1156       H  0.71401078  0.48069618  0.62525476     0.12300
H1157       H  0.77523922  0.48796819  0.75142344     0.25600
H1158       H  0.72280278  0.48616713  0.75337018     0.25600
C1159       C  0.66385846  0.49924843  0.66561694    -0.06700
C1160       C  0.64427159  0.47334344  0.66208983    -0.17800
C1161       C  0.62080166  0.47274448  0.63668379     0.10500
C1162       C  0.61729097  0.99832092  0.61341764    -0.06600
C1163       C  0.63659830  0.02448619  0.61759600    -0.17800
C1164       C  0.65943040  0.02539271  0.64359295     0.10600
S1165       S  0.59569443  0.43911044  0.63625020    -0.32800
S1166       S  0.68247268  0.06038795  0.64708432    -0.32800
H1167       H  0.68693072  0.05881658  0.68293614     0.28600
H1168       H  0.56770866  0.45703080  0.63072989     0.28600
H1169       H  0.64728401  0.45346256  0.67936844     0.19200
H1170       H  0.63415434  0.04437132  0.60025597     0.19200
C1171       C  0.62205683  0.49658650  0.89609061    -0.06700
C1172       C  0.63929522  0.02403298  0.89074008    -0.17800
C1173       C  0.66263146  0.02537810  0.86531209     0.10500
C1174       C  0.66942229  0.49848515  0.84490647    -0.06600
C1175       C  0.65250678  0.47101258  0.85018838    -0.17800
C1176       C  0.62871170  0.46982258  0.87511680     0.10600
S1177       S  0.68294067  0.06199548  0.86057405    -0.32800
S1178       S  0.60715887  0.43385869  0.87757897    -0.32800
H1179       H  0.57735225  0.44936581  0.87808175     0.28600
H1180       H  0.69182701  0.05819437  0.82592197     0.28600
H1181       H  0.63466675  0.04472552  0.90655240     0.19200
H1182       H  0.65753849  0.45047945  0.83423296     0.19200
C1183       C  0.82802228  0.49873558  0.65937871    -0.06700
C1184       C  0.82991936  0.02553794  0.63857727    -0.17800
C1185       C  0.85269624  0.02739295  0.61254130     0.10500
C1186       C  0.87431710  0.00175036  0.60689457    -0.06600
C1187       C  0.87221924  0.47494767  0.62792610    -0.17800
C1188       C  0.84929519  0.47308634  0.65379166     0.10600
S1189       S  0.85148053  0.06236270  0.58642511    -0.32800
S1190       S  0.84828213  0.43729991  0.67869140    -0.32800
H1191       H  0.81551855  0.43817534  0.68462543     0.28600
H1192       H  0.88150783  0.07145681  0.59730605     0.28600
H1193       H  0.81347922  0.04520798  0.64274074     0.19200
H1194       H  0.88842193  0.45505098  0.62404129     0.19200
C1195       C  0.88066549  0.49943158  0.89025439    -0.06700
C1196       C  0.86079515  0.02628487  0.88621795    -0.17800
C1197       C  0.83759191  0.02775618  0.86058510     0.10500
C1198       C  0.83355509  0.50154892  0.83874330    -0.06600
C1199       C  0.85369656  0.47501261  0.84213236    -0.17800
C1200       C  0.87750357  0.47386549  0.86710693     0.10600
S1201       S  0.81351685  0.06339794  0.85757190    -0.32800
S1202       S  0.90366162  0.43968562  0.86691838    -0.32800
H1203       H  0.93112672  0.45691182  0.87257101     0.28600
H1204       H  0.80694446  0.06110611  0.82218130     0.28600
H1205       H  0.86301522  0.04622706  0.90345516     0.19200
H1206       H  0.85092545  0.45509085  0.82496505     0.19200
C1207       C  0.99853749  0.16836972  0.65993867    -0.06700
C1208       C  0.97064106  0.15225587  0.65408403    -0.17800
C1209       C  0.96877579  0.12958946  0.62800922     0.10500
C1210       C  0.49563950  0.12231162  0.60736239    -0.06600
C1211       C  0.52360243  0.13863042  0.61349153    -0.17800
C1212       C  0.52534590  0.16146693  0.63941653     0.10600
S1213       S  0.93173161  0.11033419  0.62346199    -0.32800
S1214       S  0.56226064  0.18124401  0.64458295    -0.32800
H1215       H  0.55910684  0.18792526  0.67990064     0.28600
H1216       H  0.92594939  0.12346485  0.59071966     0.28600
H1217       H  0.95004244  0.15761351  0.66986558     0.19200
H1218       H  0.54440517  0.13367558  0.59791937     0.19200
C1219       C  0.00125723  0.16465354  0.83947478    -0.06700
C1220       C  0.97297115  0.14941338  0.84608544    -0.17800
C1221       C  0.97091685  0.12681896  0.87215991     0.10500
C1222       C  0.99806586  0.11856086  0.89197093    -0.06600
C1223       C  0.52654645  0.13354098  0.88461024    -0.17800
C1224       C  0.52843790  0.15641766  0.85882268     0.10600
S1225       S  0.93296505  0.10958899  0.87838512    -0.32800
S1226       S  0.56603865  0.17468814  0.85270870    -0.32800
H1227       H  0.56132623  0.18444680  0.81851973     0.28600
H1228       H  0.92890775  0.12349154  0.91112063     0.28600
H1229       H  0.95207833  0.15575148  0.83124369     0.19200
H1230       H  0.54760866  0.12775311  0.89937716     0.19200
C1231       C  0.99982086  0.33221091  0.66367524    -0.06700
C1232       C  0.52672045  0.33468978  0.64296066    -0.17800
C1233       C  0.52768381  0.35647287  0.61602865     0.10500
C1234       C  0.50141565  0.37724794  0.61012771    -0.06600
C1235       C  0.97477033  0.37512136  0.63154774    -0.17800
C1236       C  0.97356734  0.35271641  0.65792605     0.10600
S1237       S  0.56237204  0.35481783  0.58909913    -0.32800
S1238       S  0.93784489  0.35138918  0.68318723    -0.32800
H1239       H  0.93937447  0.31886815  0.68991433     0.28600
H1240       H  0.54504575  0.35428871  0.55816923     0.28600
H1241       H  0.54676833  0.31872976  0.64715182     0.19200
H1242       H  0.95451635  0.39083741  0.62752720     0.19200
C1243       C  0.00299017  0.37463363  0.89653908    -0.06700
C1244       C  0.97599793  0.37195353  0.87576548    -0.17800
C1245       C  0.97456684  0.34939099  0.84949853     0.10500
C1246       C  0.00090553  0.32906952  0.84328591    -0.06600
C1247       C  0.52804771  0.33184801  0.86356284    -0.17800
C1248       C  0.52930381  0.35399254  0.89027647     0.10600
S1249       S  0.93851446  0.34794097  0.82481833    -0.32800
S1250       S  0.56461188  0.35333956  0.91613755    -0.32800
H1251       H  0.54802350  0.35281799  0.94756360     0.28600
H1252       H  0.94078690  0.31578102  0.81625345     0.28600
H1253       H  0.95566405  0.38749719  0.88008478     0.19200
H1254       H  0.54822237  0.31613574  0.85891324     0.19200
N1255       N  0.93118061  0.51420173  0.46078421    -0.06700
N1256       N  0.91362754  0.52510510  0.43515186    -0.58800
N1257       N  0.92990489  0.98436912  0.04044461    -0.06300
N1258       N  0.91068060  0.97433748  0.06465466    -0.60900
N1259       N  0.92943159  0.51536714  0.03976222    -0.05900
N1260       N  0.90987065  0.52695425  0.06337040    -0.58800
N1261       N  0.93149381  0.98320149  0.46113216    -0.05600
N1262       N  0.91406461  0.97243074  0.43568206    -0.61300
C1263       C  0.90330534  0.99882908  0.41943421     0.95500
C1264       C  0.89826925  0.50117763  0.07879668     0.95300
N1265       N  0.51526173  0.93115589  0.04245347    -0.06900
N1266       N  0.52665081  0.91277146  0.06707171    -0.59400
N1267       N  0.98528649  0.92991712  0.46300603    -0.05000
N1268       N  0.97534241  0.91062717  0.43881185    -0.60600
N1269       N  0.51634992  0.93001825  0.46340451    -0.06900
N1270       N  0.52809797  0.91086395  0.43949629    -0.59600
N1271       N  0.98419541  0.93097475  0.04224067    -0.04600
N1272       N  0.97389823  0.91223076  0.06673983    -0.60700
Mn1273     Mn  0.95698612  0.95640332  0.00177243     1.18400
C1274       C  0.50070276  0.90093244  0.08198686     0.97600
C1275       C  0.00230275  0.89877509  0.42437360     0.98300
N1276       N  0.98151045  0.56742536  0.04014613    -0.06900
N1277       N  0.96999338  0.58658614  0.06416875    -0.63200
N1278       N  0.51374545  0.56609112  0.46151727    -0.05700
N1279       N  0.52443337  0.58410782  0.43661920    -0.63900
N1280       N  0.98270045  0.56615799  0.46101755    -0.06400
N1281       N  0.97173522  0.58414089  0.43579518    -0.63500
N1282       N  0.51256664  0.56719067  0.04063124    -0.05300
N1283       N  0.52272987  0.58617936  0.06494709    -0.64200
Mn1284     Mn  0.95556600  0.54141255  0.50047009     1.10700
C1285       C  0.49593105  0.59804837  0.07964982     0.98800
C1286       C  0.99795275  0.59516718  0.42056224     0.98900
N1287       N  0.56808627  0.98220079  0.46384047    -0.06400
N1288       N  0.58727282  0.97086053  0.43976732    -0.61800
N1289       N  0.56631716  0.51403222  0.04259118    -0.05700
N1290       N  0.58384008  0.52476421  0.06798157    -0.58500
N1291       N  0.56677279  0.98303972  0.04276706    -0.08500
N1292       N  0.58457643  0.97208962  0.06818527    -0.61400
N1293       N  0.56752066  0.51317604  0.46341520    -0.06000
N1294       N  0.58621382  0.52351309  0.43893587    -0.58500
Mn1295     Mn  0.54220091  0.95601653  0.00307387     1.20200
Mn1296     Mn  0.54070093  0.54080281  0.50205769     1.10100
Cl1297     Cl  0.49883134  0.49864450  0.00189522    -0.86500
C1298       C  0.59819525  0.99684933  0.42411485     0.95800
C1299       C  0.59483487  0.49832877  0.08401909     0.95600
N1300       N  0.99832322  0.79732307  0.25282285    -0.37200
N1301       N  0.00182647  0.74748229  0.30489465    -0.57700
N1302       N  0.99806933  0.69996262  0.25058184    -0.37200
N1303       N  0.99982750  0.74964104  0.19845215    -0.57700
C1304       C  0.00460996  0.81450532  0.28126677     0.26400
C1305       C  0.00400095  0.81559144  0.22509634     0.26400
C1306       C  0.00375674  0.68111033  0.27806758     0.26400
C1307       C  0.00264907  0.68228492  0.22189038     0.26400
C1308       C  0.99780609  0.77277269  0.32586029     0.35000
C1309       C  0.99803651  0.72167506  0.32470390     0.35000
C1310       C  0.99560163  0.77566210  0.17880646     0.35000
C1311       C  0.99522348  0.72463815  0.17759350     0.35000
C1312       C  0.01394815  0.84426892  0.27151819    -0.22400
C1313       C  0.01359182  0.84494190  0.23607238    -0.22400
C1314       C  0.01154836  0.65087574  0.26669763    -0.22400
C1315       C  0.01086324  0.65161487  0.23127072    -0.22400
C1316       C  0.99185909  0.76294885  0.35923357    -0.23500
C1317       C  0.99209706  0.73061355  0.35851747    -0.23500
C1318       C  0.98863918  0.76711751  0.14520305    -0.23500
C1319       C  0.98844436  0.73481021  0.14442779    -0.23500
C1320       C  0.00084529  0.80460680  0.31579988    -0.18800
C1321       C  0.99950270  0.80701352  0.19020959    -0.18800
C1322       C  0.99864682  0.69267589  0.18747197    -0.18800
C1323       C  0.00106482  0.69006827  0.31315166    -0.18800
H1324       H  0.02028882  0.86355766  0.28821601     0.14100
H1325       H  0.01958873  0.86484504  0.22019651     0.14100
H1326       H  0.01715779  0.63037487  0.28229890     0.14100
H1327       H  0.01584901  0.63177743  0.21435423     0.14100
H1328       H  0.98789179  0.77754655  0.38181542     0.12300
H1329       H  0.98833802  0.71542553  0.38042249     0.12300
H1330       H  0.98433413  0.78253636  0.12343492     0.12300
H1331       H  0.98400074  0.72044978  0.12194845     0.12300
H1332       H  0.98905236  0.77502260  0.25244841     0.25600
H1333       H  0.99011246  0.72318389  0.25135103     0.25600
N1334       N  0.79742831  0.99759783  0.25040711    -0.37200
N1335       N  0.75035924  0.99998364  0.30546618    -0.57700
N1336       N  0.70010719  0.99591868  0.25420790    -0.37200
N1337       N  0.74700394  0.99881044  0.19918278    -0.57700
C1338       C  0.81593817  0.00434102  0.27769077     0.26400
C1339       C  0.81420059  0.00343536  0.22155281     0.26400
C1340       C  0.68306889  0.00244695  0.28295258     0.26400
C1341       C  0.68120830  0.00223237  0.22684866     0.26400
C1342       C  0.77674336  0.99605484  0.32469575     0.35000
C1343       C  0.72571361  0.99490796  0.32667950     0.35000
C1344       C  0.77207712  0.99407668  0.17803453     0.35000
C1345       C  0.72096372  0.99357514  0.18010415     0.35000
C1346       C  0.84503247  0.01417198  0.26603713    -0.22400
C1347       C  0.84394185  0.01358708  0.23061061    -0.22400
C1348       C  0.65281406  0.01258328  0.27378154    -0.22400
C1349       C  0.65165628  0.01249259  0.23836556    -0.22400
C1350       C  0.76879531  0.98885458  0.35838484    -0.23500
C1351       C  0.73643325  0.98813426  0.35963884    -0.23500
C1352       C  0.76189961  0.98610076  0.14529491    -0.23500
C1353       C  0.72951286  0.98578093  0.14660723    -0.23500
C1354       C  0.80784055  0.00060355  0.31280887    -0.18800
C1355       C  0.80395480  0.99850801  0.18729770    -0.18800
C1356       C  0.68950720  0.99791142  0.19179610    -0.18800
C1357       C  0.69361270  0.99834450  0.31726060    -0.18800
H1358       H  0.86502962  0.02097988  0.28145933     0.14100
H1359       H  0.86294937  0.01982892  0.21347750     0.14100
H1360       H  0.63356316  0.01939724  0.29084109     0.14100
H1361       H  0.63133991  0.01921352  0.22286311     0.14100
H1362       H  0.78464585  0.98478265  0.37988359     0.12300
H1363       H  0.72239172  0.98347012  0.38228620     0.12300
H1364       H  0.77629778  0.98123698  0.12274657     0.12300
H1365       H  0.71401118  0.98069576  0.12525478     0.12300
H1366       H  0.77523917  0.98796875  0.25142334     0.25600
H1367       H  0.72280247  0.98616689  0.25336995     0.25600
C1368       C  0.66385880  0.99924850  0.16561665    -0.06700
C1369       C  0.64427220  0.97334331  0.16208946    -0.17800
C1370       C  0.62080205  0.97274437  0.13668366     0.10500
C1371       C  0.61729107  0.49832176  0.11341740    -0.06600
C1372       C  0.63659889  0.52448672  0.11759533    -0.17800
C1373       C  0.65943089  0.52539326  0.14359245     0.10600
S1374       S  0.59569525  0.93911003  0.13624995    -0.32800
S1375       S  0.68247370  0.56038821  0.14708356    -0.32800
H1376       H  0.68693137  0.55881717  0.18293546     0.28600
H1377       H  0.56770923  0.95703006  0.13072991     0.28600
H1378       H  0.64728498  0.95346232  0.17936782     0.19200
H1379       H  0.63415532  0.54437161  0.10025490     0.19200
C1380       C  0.62205655  0.99658624  0.39609013    -0.06700
C1381       C  0.63929498  0.52403299  0.39073970    -0.17800
C1382       C  0.66263128  0.52537801  0.36531177     0.10500
C1383       C  0.66942211  0.99848490  0.34490605    -0.06600
C1384       C  0.65250661  0.97101231  0.35018796    -0.17800
C1385       C  0.62871142  0.96982235  0.37511629     0.10600
S1386       S  0.68294010  0.56199556  0.36057331    -0.32800
S1387       S  0.60715854  0.93385852  0.37757847    -0.32800
H1388       H  0.57735194  0.94936571  0.37808110     0.28600
H1389       H  0.69182734  0.55819395  0.32592158     0.28600
H1390       H  0.63466622  0.54472567  0.40655165     0.19200
H1391       H  0.65753842  0.95047915  0.33423261     0.19200
C1392       C  0.82802248  0.99873608  0.15937884    -0.06700
C1393       C  0.82992007  0.52553846  0.13857809    -0.17800
C1394       C  0.85269700  0.52739344  0.11254218     0.10500
C1395       C  0.87431736  0.50175047  0.10689500    -0.06600
C1396       C  0.87221921  0.97494789  0.12792614    -0.17800
C1397       C  0.84929532  0.97308675  0.15379185     0.10600
S1398       S  0.85148184  0.56236368  0.08642669    -0.32800
S1399       S  0.84828247  0.93730048  0.17869194    -0.32800
H1400       H  0.81551901  0.93817606  0.18462672     0.28600
H1401       H  0.88150968  0.57145660  0.09730706     0.28600
H1402       H  0.81348030  0.54520875  0.14274185     0.19200
H1403       H  0.88842180  0.95505115  0.12404135     0.19200
C1404       C  0.88066549  0.99943194  0.39025439    -0.06700
C1405       C  0.86079458  0.52628458  0.38621852    -0.17800
C1406       C  0.83759126  0.52775575  0.36058570     0.10500
C1407       C  0.83355493  0.00154927  0.33874343    -0.06600
C1408       C  0.85369667  0.97501310  0.34213223    -0.17800
C1409       C  0.87750369  0.97386595  0.36710678     0.10600
S1410       S  0.81351540  0.56339708  0.35757300    -0.32800
S1411       S  0.90366196  0.93968622  0.36691791    -0.32800
H1412       H  0.93112695  0.95691254  0.37257079     0.28600
H1413       H  0.80694273  0.56110539  0.32218244     0.28600
H1414       H  0.86301431  0.54622657  0.40345604     0.19200
H1415       H  0.85092574  0.95509146  0.32496472     0.19200
C1416       C  0.99853787  0.66836958  0.15993874    -0.06700
C1417       C  0.97064122  0.65225627  0.15408365    -0.17800
C1418       C  0.96877585  0.62959003  0.12800871     0.10500
C1419       C  0.49563960  0.62231174  0.10736218    -0.06600
C1420       C  0.52360278  0.63862997  0.11349177    -0.17800
C1421       C  0.52534637  0.66146638  0.13941684     0.10600
S1422       S  0.93173140  0.61033544  0.12346099    -0.32800
S1423       S  0.56226132  0.68124295  0.14458351    -0.32800
H1424       H  0.55910737  0.68792436  0.17990115     0.28600
H1425       H  0.92594977  0.62346619  0.09071858     0.28600
H1426       H  0.95004247  0.65761424  0.16986491     0.19200
H1427       H  0.54440562  0.63367484  0.09791986     0.19200
C1428       C  0.00125738  0.66465351  0.33947476    -0.06700
C1429       C  0.97297090  0.64941441  0.34608630    -0.17800
C1430       C  0.97091647  0.62682000  0.37216076     0.10500
C1431       C  0.99806579  0.61856084  0.39197084    -0.06600
C1432       C  0.52654670  0.63353995  0.38460930    -0.17800
C1433       C  0.52843826  0.65641658  0.35882172     0.10600
S1434       S  0.93296396  0.60959191  0.37838747    -0.32800
S1435       S  0.56603950  0.67468585  0.35270666    -0.32800
H1436       H  0.56132663  0.68444436  0.31851771     0.28600
H1437       H  0.92890878  0.62349390  0.41112354     0.28600
H1438       H  0.95207785  0.65575337  0.33124530     0.19200
H1439       H  0.54760917  0.62775133  0.39937556     0.19200
C1440       C  0.99982156  0.83221078  0.16367529    -0.06700
C1441       C  0.52672092  0.83468955  0.14296037    -0.17800
C1442       C  0.52768402  0.85647251  0.11602821     0.10500
C1443       C  0.50141576  0.87724756  0.11012750    -0.06600
C1444       C  0.97477066  0.87512101  0.13154774    -0.17800
C1445       C  0.97356793  0.85271617  0.15792622     0.10600
S1446       S  0.56237212  0.85481745  0.08909841    -0.32800
S1447       S  0.93784578  0.85138905  0.18318797    -0.32800
H1448       H  0.93937512  0.81886788  0.18991440     0.28600
H1449       H  0.54504569  0.85428877  0.05816859     0.28600
H1450       H  0.54676881  0.81872958  0.14715141     0.19200
H1451       H  0.95451668  0.89083706  0.12752730     0.19200
C1452       C  0.00299027  0.87463378  0.39653886    -0.06700
C1453       C  0.97599791  0.87195332  0.37576552    -0.17800
C1454       C  0.97456688  0.84939069  0.34949869     0.10500
C1455       C  0.00090572  0.82906947  0.34328591    -0.06600
C1456       C  0.52804806  0.83184842  0.36356249    -0.17800
C1457       C  0.52930410  0.85399310  0.39027597     0.10600
S1458       S  0.93851432  0.84794034  0.32481882    -0.32800
S1459       S  0.56461248  0.85334081  0.41613655    -0.32800
H1460       H  0.54802448  0.85281870  0.44756283     0.28600
H1461       H  0.94078745  0.81578070  0.31625276     0.28600
H1462       H  0.95566388  0.88749679  0.38008492     0.19200
H1463       H  0.54822290  0.81613646  0.35891273     0.19200
N1464       N  0.93118050  0.51420156  0.96078429    -0.06700
N1465       N  0.91362745  0.52510488  0.93515190    -0.58800
N1466       N  0.92990493  0.98436911  0.54044451    -0.06300
N1467       N  0.91068049  0.97433749  0.56465444    -0.60900
N1468       N  0.92943163  0.51536731  0.53976218    -0.05900
N1469       N  0.90987061  0.52695433  0.56337036    -0.58800
N1470       N  0.93149369  0.98320148  0.96113227    -0.05600
N1471       N  0.91406451  0.97243070  0.93568216    -0.61300
C1472       C  0.90330519  0.99882903  0.91943431     0.95500
C1473       C  0.89826928  0.50117763  0.57879659     0.95300
N1474       N  0.51526174  0.93115587  0.54245312    -0.06900
N1475       N  0.52665084  0.91277147  0.56707138    -0.59400
N1476       N  0.98528652  0.92991718  0.96300608    -0.05000
N1477       N  0.97534244  0.91062725  0.93881189    -0.60600
N1478       N  0.51635004  0.93001810  0.96340482    -0.06900
N1479       N  0.52809814  0.91086386  0.93949657    -0.59600
N1480       N  0.98419541  0.93097468  0.54224055    -0.04600
N1481       N  0.97389815  0.91223080  0.56673977    -0.60700
Mn1482     Mn  0.95698617  0.95640333  0.50177231     1.18400
C1483       C  0.50070277  0.90093258  0.58198667     0.97600
C1484       C  0.00230276  0.89877516  0.92437362     0.98300
N1485       N  0.98151066  0.56742526  0.54014611    -0.06900
N1486       N  0.96999353  0.58658605  0.56416867    -0.63200
N1487       N  0.51374522  0.56609123  0.96151717    -0.05700
N1488       N  0.52443308  0.58410793  0.93661904    -0.63900
N1489       N  0.98270018  0.56615802  0.96101753    -0.06400
N1490       N  0.97173489  0.58414093  0.93579520    -0.63500
N1491       N  0.51256676  0.56719056  0.54063126    -0.05300
N1492       N  0.52272993  0.58617937  0.56494702    -0.64200
Mn1493     Mn  0.95556585  0.54141247  0.00047013     1.10700
C1494       C  0.49593105  0.59804843  0.57964962     0.98800
C1495       C  0.99795239  0.59516724  0.92056222     0.98900
N1496       N  0.56808624  0.98220081  0.96384063    -0.06400
N1497       N  0.58727291  0.97086058  0.93976760    -0.61800
N1498       N  0.56631718  0.51403196  0.54259138    -0.05700
N1499       N  0.58384001  0.52476388  0.56798188    -0.58500
N1500       N  0.56677294  0.98303955  0.54276679    -0.08500
N1501       N  0.58457650  0.97208933  0.56818501    -0.61400
N1502       N  0.56752050  0.51317625  0.96341511    -0.06000
N1503       N  0.58621370  0.52351334  0.93893585    -0.58500
Mn1504     Mn  0.54220089  0.95601654  0.50307358     1.20200
Mn1505     Mn  0.54070078  0.54080298  0.00205757     1.10100
Cl1506     Cl  0.49883143  0.49864442  0.50189520    -0.86500
C1507       C  0.59819528  0.99684939  0.92411509     0.95800
C1508       C  0.59483480  0.49832839  0.58401929     0.95600
N1509       N  0.99832284  0.79732315  0.75282285    -0.37200
N1510       N  0.00182610  0.74748227  0.80489460    -0.57700
N1511       N  0.99806893  0.69996270  0.75058175    -0.37200
N1512       N  0.99982712  0.74964110  0.69845215    -0.57700
C1513       C  0.00460962  0.81450538  0.78126677     0.26400
C1514       C  0.00400061  0.81559150  0.72509634     0.26400
C1515       C  0.00375613  0.68111035  0.77806749     0.26400
C1516       C  0.00264860  0.68228497  0.72189030     0.26400
C1517       C  0.99780597  0.77277268  0.82586029     0.35000
C1518       C  0.99803613  0.72167503  0.82470386     0.35000
C1519       C  0.99560134  0.77566216  0.67880644     0.35000
C1520       C  0.99522325  0.72463821  0.67759344     0.35000
C1521       C  0.01394781  0.84426897  0.77151818    -0.22400
C1522       C  0.01359156  0.84494193  0.73607237    -0.22400
C1523       C  0.01154755  0.65087573  0.76669754    -0.22400
C1524       C  0.01086247  0.65161486  0.73127064    -0.22400
C1525       C  0.99185913  0.76294886  0.85923360    -0.23500
C1526       C  0.99209692  0.73061355  0.85851748    -0.23500
C1527       C  0.98863915  0.76711757  0.64520296    -0.23500
C1528       C  0.98844430  0.73481027  0.64442771    -0.23500
C1529       C  0.00084512  0.80460681  0.81579990    -0.18800
C1530       C  0.99950235  0.80701358  0.69020959    -0.18800
C1531       C  0.99864650  0.69267596  0.68747189    -0.18800
C1532       C  0.00106424  0.69006825  0.81315157    -0.18800
H1533       H  0.02028850  0.86355773  0.78821599     0.14100
H1534       H  0.01958855  0.86484505  0.72019650     0.14100
H1535       H  0.01715682  0.63037481  0.78229882     0.14100
H1536       H  0.01584808  0.63177740  0.71435417     0.14100
H1537       H  0.98789201  0.77754657  0.88181544     0.12300
H1538       H  0.98833788  0.71542556  0.88042252     0.12300
H1539       H  0.98433433  0.78253641  0.62343481     0.12300
H1540       H  0.98400077  0.72044984  0.62194836     0.12300
H1541       H  0.98905198  0.77502268  0.75244840     0.25600
H1542       H  0.99011226  0.72318401  0.75135095     0.25600
N1543       N  0.79742826  0.99759791  0.75040709    -0.37200
N1544       N  0.75035928  0.99998405  0.80546632    -0.57700
N1545       N  0.70010718  0.99591871  0.75420811    -0.37200
N1546       N  0.74700382  0.99881023  0.69918287    -0.57700
C1547       C  0.81593820  0.00434112  0.77769068     0.26400
C1548       C  0.81420058  0.00343515  0.72155273     0.26400
C1549       C  0.68306881  0.00244684  0.78295278     0.26400
C1550       C  0.68120815  0.00223199  0.72684887     0.26400
C1551       C  0.77674341  0.99605538  0.82469585     0.35000
C1552       C  0.72571367  0.99490852  0.82667973     0.35000
C1553       C  0.77207699  0.99407676  0.67803450     0.35000
C1554       C  0.72096356  0.99357502  0.68010425     0.35000
C1555       C  0.84503260  0.01417177  0.76603691    -0.22400
C1556       C  0.84394195  0.01358668  0.73061042    -0.22400
C1557       C  0.65281378  0.01258264  0.77378171    -0.22400
C1558       C  0.65165599  0.01249184  0.73836574    -0.22400
C1559       C  0.76879541  0.98885530  0.85838501    -0.23500
C1560       C  0.73643337  0.98813491  0.85963906    -0.23500
C1561       C  0.76189942  0.98610120  0.64529480    -0.23500
C1562       C  0.72951266  0.98578122  0.64660719    -0.23500
C1563       C  0.80784059  0.00060397  0.81280883    -0.18800
C1564       C  0.80395473  0.99850785  0.68729764    -0.18800
C1565       C  0.68950703  0.99791107  0.69179630    -0.18800
C1566       C  0.69361272  0.99834481  0.81726084    -0.18800
H1567       H  0.86502984  0.02097962  0.78145903     0.14100
H1568       H  0.86294952  0.01982829  0.71347725     0.14100
H1569       H  0.63356277  0.01939632  0.79084121     0.14100
H1570       H  0.63133951  0.01921237  0.72286327     0.14100
H1571       H  0.78464598  0.98478346  0.87988379     0.12300
H1572       H  0.72239188  0.98347066  0.88228643     0.12300
H1573       H  0.77629754  0.98123769  0.62274641     0.12300
H1574       H  0.71401099  0.98069623  0.62525473     0.12300
H1575       H  0.77523892  0.98796902  0.75142344     0.25600
H1576       H  0.72280272  0.98616729  0.75337018     0.25600
C1577       C  0.66385860  0.99924815  0.66561688    -0.06700
C1578       C  0.64427225  0.97334281  0.66208940    -0.17800
C1579       C  0.62080232  0.97274373  0.63668335     0.10500
C1580       C  0.61729095  0.49832133  0.61341759    -0.06600
C1581       C  0.63659875  0.52448631  0.61759556    -0.17800
C1582       C  0.65943070  0.52539284  0.64359270     0.10600
S1583       S  0.59569611  0.93910894  0.63624892    -0.32800
S1584       S  0.68247336  0.56038786  0.64708402    -0.32800
H1585       H  0.68693136  0.55881659  0.68293587     0.28600
H1586       H  0.56770980  0.95702863  0.63072939     0.28600
H1587       H  0.64728514  0.95346174  0.67936765     0.19200
H1588       H  0.63415518  0.54437123  0.60025516     0.19200
C1589       C  0.62205669  0.99658637  0.89609050    -0.06700
C1590       C  0.63929516  0.52403322  0.89073993    -0.17800
C1591       C  0.66263145  0.52537822  0.86531198     0.10500
C1592       C  0.66942217  0.99848514  0.84490635    -0.06600
C1593       C  0.65250641  0.97101266  0.85018792    -0.17800
C1594       C  0.62871128  0.96982266  0.87511630     0.10600
S1595       S  0.68294044  0.56199567  0.86057355    -0.32800
S1596       S  0.60715813  0.93385901  0.87757818    -0.32800
H1597       H  0.57735163  0.94936636  0.87808129     0.28600
H1598       H  0.69182691  0.55819433  0.82592154     0.28600
H1599       H  0.63466651  0.54472589  0.90655196     0.19200
H1600       H  0.65753798  0.95047964  0.83423230     0.19200
C1601       C  0.82802240  0.99873589  0.65937870    -0.06700
C1602       C  0.82991957  0.52553787  0.63857771    -0.17800
C1603       C  0.85269655  0.52739298  0.61254183     0.10500
C1604       C  0.87431727  0.50175029  0.60689486    -0.06600
C1605       C  0.87221932  0.97494790  0.62792611    -0.17800
C1606       C  0.84929550  0.97308674  0.65379192     0.10600
S1607       S  0.85148121  0.56236308  0.58642615    -0.32800
S1608       S  0.84828282  0.93730056  0.67869216    -0.32800
H1609       H  0.81551928  0.93817587  0.68462647     0.28600
H1610       H  0.88150873  0.57145651  0.59730705     0.28600
H1611       H  0.81347958  0.54520800  0.64274140     0.19200
H1612       H  0.88842210  0.95505125  0.62404142     0.19200
C1613       C  0.88066535  0.99943189  0.89025447    -0.06700
C1614       C  0.86079498  0.52628435  0.88621807    -0.17800
C1615       C  0.83759170  0.52775550  0.86058525     0.10500
C1616       C  0.83355500  0.00154954  0.83874332    -0.06600
C1617       C  0.85369617  0.97501300  0.84213257    -0.17800
C1618       C  0.87750317  0.97386573  0.86710715     0.10600
S1619       S  0.81351614  0.56339696  0.85757242    -0.32800
S1620       S  0.90366087  0.93968558  0.86691888    -0.32800
H1621       H  0.93112619  0.95691157  0.87257106     0.28600
H1622       H  0.80694356  0.56110522  0.82218186     0.28600
H1623       H  0.86301481  0.54622646  0.90345541     0.19200
H1624       H  0.85092480  0.95509120  0.82496536     0.19200
C1625       C  0.99853764  0.66836965  0.65993863    -0.06700
C1626       C  0.97064094  0.65225649  0.65408324    -0.17800
C1627       C  0.96877565  0.62959025  0.62800829     0.10500
C1628       C  0.49563947  0.62231185  0.60736194    -0.06600
C1629       C  0.52360266  0.63863004  0.61349173    -0.17800
C1630       C  0.52534614  0.66146644  0.63941686     0.10600
S1631       S  0.93173098  0.61033617  0.62345993    -0.32800
S1632       S  0.56226113  0.68124297  0.64458397    -0.32800
H1633       H  0.55910699  0.68792398  0.67990169     0.28600
H1634       H  0.92594997  0.62346700  0.59071743     0.28600
H1635       H  0.95004206  0.65761460  0.66986426     0.19200
H1636       H  0.54440557  0.63367486  0.59791998     0.19200
C1637       C  0.00125692  0.66465342  0.83947460    -0.06700
C1638       C  0.97297054  0.64941406  0.84608594    -0.17800
C1639       C  0.97091611  0.62681977  0.87216051     0.10500
C1640       C  0.99806539  0.61856090  0.89197082    -0.06600
C1641       C  0.52654625  0.63354015  0.88460919    -0.17800
C1642       C  0.52843775  0.65641683  0.85882164     0.10600
S1643       S  0.93296364  0.60959148  0.87838696    -0.32800
S1644       S  0.56603893  0.67468618  0.85270663    -0.32800
H1645       H  0.56132603  0.68444503  0.81851782     0.28600
H1646       H  0.92890821  0.62349330  0.91112308     0.28600
H1647       H  0.95207755  0.65575280  0.83124476     0.19200
H1648       H  0.54760872  0.62775161  0.89937545     0.19200
C1649       C  0.99982126  0.83221084  0.66367529    -0.06700
C1650       C  0.52672068  0.83468968  0.64296038    -0.17800
C1651       C  0.52768382  0.85647260  0.61602818     0.10500
C1652       C  0.50141568  0.87724774  0.61012742    -0.06600
C1653       C  0.97477055  0.87512128  0.63154791    -0.17800
C1654       C  0.97356773  0.85271638  0.65792631     0.10600
S1655       S  0.56237183  0.85481748  0.58909835    -0.32800
S1656       S  0.93784557  0.85138934  0.68318800    -0.32800
H1657       H  0.93937500  0.81886829  0.68991505     0.28600
H1658       H  0.54504529  0.85428859  0.55816860     0.28600
H1659       H  0.54676858  0.81872965  0.64715146     0.19200
H1660       H  0.95451665  0.89083745  0.62752760     0.19200
C1661       C  0.00299021  0.87463378  0.89653897    -0.06700
C1662       C  0.97599797  0.87195355  0.87576544    -0.17800
C1663       C  0.97456692  0.84939088  0.84949864     0.10500
C1664       C  0.00090565  0.82906948  0.84328601    -0.06600
C1665       C  0.52804818  0.83184815  0.86356282    -0.17800
C1666       C  0.52930418  0.85399272  0.89027642     0.10600
S1667       S  0.93851440  0.84794043  0.82481879    -0.32800
S1668       S  0.56461217  0.85333992  0.91613758    -0.32800
H1669       H  0.54802368  0.85281810  0.94756356     0.28600
H1670       H  0.94078699  0.81578040  0.81625431     0.28600
H1671       H  0.95566404  0.88749719  0.88008471     0.19200
H1672       H  0.54822289  0.81613592  0.85891328     0.19200
loop_ 
_geom_bond_atom_site_label_1 
_geom_bond_atom_site_label_2 
_geom_bond_distance 
_geom_bond_site_symmetry_2 
_ccdc_geom_bond_type 
N1            N2   1.319       .  A
N1          N425   1.315   1_545  A
N1          Mn30   2.198       .  S
N2          C427   1.353   1_545  A
N3            N4   1.321       .  A
N3          N423   1.316       .  A
N3          Mn19   2.211       .  S
N4          C428   1.356       .  A
N5            N6   1.320       .  A
N5          N421   1.316   1_545  A
N5         Mn239   2.201       .  S
N6           C10   1.352       .  A
N7            N8   1.321       .  A
N7          N419   1.315       .  A
N7         Mn228   2.211       .  S
N8            C9   1.355       .  A
C9          N420   1.353       .  A
C9          C150   1.484       .  S
C10         N422   1.356   1_545  A
C10         C141   1.488       .  S
N11          N12   1.318       .  A
N11         N853   1.316   1_455  A
N11         Mn41   2.196       .  S
N12          C20   1.351       .  A
N13          N14   1.321       .  A
N13         N851   1.315       .  A
N13        Mn228   2.209       .  S
N14          C21   1.355       .  A
N15          N16   1.320       .  A
N15         N849   1.315   1_455  A
N15        Mn250   2.201       .  S
N16         C857   1.353       .  A
N17          N18   1.322       .  A
N17         N847   1.316       .  A
N17         Mn19   2.214       .  S
N18         C856   1.357       .  A
Mn19        N216   2.211   1_554  S
Mn19        N222   2.209   1_554  S
Mn19      Cl1297   2.554       .  S
C20         N854   1.357   1_455  A
C20         C189   1.486       .  S
C21         N852   1.353       .  A
C21         C198   1.487       .  S
N22          N23   1.320       .  A
N22         N864   1.315       .  A
N22        Mn239   2.204       .  S
N23         C867   1.354       .  A
N24          N25   1.321       .  A
N24         N862   1.315   1_455  A
N24         Mn42   2.208       .  S
N25         C868   1.356   1_455  A
N26          N27   1.320       .  A
N26         N860   1.315       .  A
N26         Mn30   2.200       .  S
N27          C32   1.353       .  A
N28          N29   1.319       .  A
N28         N858   1.315   1_455  A
N28        Mn251   2.198       .  S
N29          C31   1.354   1_455  A
Mn30        N214   2.201       .  S
Mn30        N231   2.204       .  S
Mn30      Cl1088   2.544   1_545  S
C31         N859   1.354       .  A
C31         C165   1.487       .  S
C32         N861   1.356       .  A
C32         C177   1.491       .  S
N33          N34   1.319       .  A
N33         N457   1.314       .  A
N33        Mn250   2.197       .  S
N34          C44   1.353       .  A
N35          N36   1.321       .  A
N35         N455   1.315   1_545  A
N35        Mn251   2.210       .  S
N36          C45   1.356   1_545  A
N37          N38   1.320       .  A
N37         N453   1.315       .  A
N37         Mn41   2.197       .  S
N38         C463   1.353       .  A
N39          N40   1.320       .  A
N39         N451   1.314   1_545  A
N39         Mn42   2.198       .  S
N40         C462   1.354   1_545  A
Mn41        N224   2.201   1_554  S
Mn41        N242   2.197   1_554  S
Mn41       Cl461   2.543   1_455  S
Mn42        N237   2.198       .  S
Mn42        N244   2.210       .  S
Mn42       Cl252   2.553   1_445  S
Cl43      Mn1273   2.554       .  S
Cl43      Mn1075   2.544   1_565  S
Cl43       Mn459   2.543   1_655  S
Cl43       Mn251   2.553   1_665  S
C44         N458   1.354       .  A
C44         C126   1.484       .  S
C45         N456   1.353       .  A
C45         C117   1.486       .  S
N46          C51   1.353       .  A
N46          C50   1.352       .  A
N46          H78   1.034       .  S
N47          C54   1.352       .  A
N47          C55   1.353       .  A
N48          C53   1.352       .  A
N48          C52   1.353       .  A
N48          H79   1.033       .  S
N49          C56   1.351       .  A
N49          C57   1.351       .  A
C50          C58   1.387       .  A
C50          C66   1.416       .  A
C51          C67   1.415       .  A
C51          C59   1.387       .  A
C52          C60   1.387       .  A
C52          C69   1.416       .  A
C53          C68   1.416       .  A
C53          C61   1.388       .  A
C54          C66   1.416       .  A
C54          C62   1.387       .  A
C55          C69   1.416       .  A
C55          C63   1.386       .  A
C56          C64   1.387       .  A
C56          C67   1.415       .  A
C57          C65   1.386       .  A
C57          C68   1.414       .  A
C58          C59   1.376       .  A
C58          H70   1.082       .  S
C59          H71   1.082       .  S
C60          C61   1.376       .  A
C60          H72   1.082       .  S
C61          H73   1.082       .  S
C62          C63   1.372       .  A
C62          H74   1.082       .  S
C63          H75   1.082       .  S
C64          C65   1.372       .  A
C64          H76   1.082       .  S
C65          H77   1.082       .  S
C66         C201   1.487       .  S
C67         C186   1.487       .  S
C68         C162   1.483       .  S
C69         C174   1.487       .  S
N80          C85   1.353       .  A
N80          C84   1.352       .  A
N80         H112   1.035       .  S
N81          C88   1.351       .  A
N81          C89   1.351       .  A
N82          C87   1.353       .  A
N82          C86   1.352       .  A
N82         H113   1.036       .  S
N83          C90   1.352       .  A
N83          C91   1.352       .  A
C84          C92   1.387       .  A
C84         C100   1.415       .  A
C85         C101   1.415       .  A
C85          C93   1.387       .  A
C86          C94   1.387       .  A
C86         C103   1.414       .  A
C87         C102   1.415       .  A
C87          C95   1.387       .  A
C88         C100   1.413       .  A
C88          C96   1.387       .  A
C89         C103   1.412       .  A
C89          C97   1.386       .  A
C90          C98   1.386       .  A
C90         C101   1.414       .  A
C91          C99   1.386       .  A
C91         C102   1.414       .  A
C92          C93   1.376       .  A
C92         H104   1.082       .  S
C93         H105   1.082       .  S
C94          C95   1.375       .  A
C94         H106   1.082       .  S
C95         H107   1.082       .  S
C96          C97   1.372       .  A
C96         H108   1.082       .  S
C97         H109   1.082       .  S
C98          C99   1.373       .  A
C98         H110   1.082       .  S
C99         H111   1.082       .  S
C100        C153   1.484       .  S
C101        C138   1.487       .  S
C102        C114   1.488       .  S
C103        C129   1.483       .  S
C114        C115   1.401       .  A
C114        C537   1.411       .  A
C115        C116   1.401       .  A
C115        H124   1.084       .  S
C116        C535   1.418       .  A
C116        S120   1.803       .  S
C117        C118   1.406   1_565  A
C117        C534   1.418       .  A
C118        C119   1.399       .  A
C118        H125   1.083       .  S
C119        C532   1.411   1_545  A
C119        S121   1.804       .  S
S120        H123   1.407       .  S
S121        H122   1.406       .  S
C126        C131   1.418       .  A
C126        C545   1.407       .  A
C127        C128   1.398       .  A
C127        C544   1.407   1_545  A
C127        H136   1.083       .  S
C128        C547   1.411   1_545  A
C128        S132   1.806       .  S
C129        C130   1.400       .  A
C129        C546   1.411       .  A
C130        C131   1.398       .  A
C130        H137   1.084       .  S
C131        S133   1.802       .  S
S132        H135   1.404       .  S
S133        H134   1.408       .  S
C138        C143   1.410       .  A
C138        C557   1.401       .  A
C139        C140   1.400       .  A
C139        C556   1.401   1_545  A
C139        H148   1.084       .  S
C140        C141   1.419       .  A
C140        S144   1.799       .  S
C141        C560   1.406   1_545  A
C142        C143   1.400       .  A
C142        C559   1.406       .  A
C142        H149   1.084       .  S
C143        S145   1.804       .  S
S144        H147   1.404       .  S
S145        H146   1.406       .  S
C150        C155   1.416       .  A
C150        C569   1.407       .  A
C151        C152   1.399       .  A
C151        C568   1.407   1_545  A
C151        H160   1.084       .  S
C152        C571   1.411       .  A
C152        S156   1.805       .  S
C153        C154   1.401       .  A
C153        C570   1.411       .  A
C154        C155   1.399       .  A
C154        H161   1.084       .  S
C155        S157   1.801       .  S
S156        H159   1.405       .  S
S157        H158   1.407       .  S
C162        C163   1.399       .  A
C162       C1003   1.410       .  A
C163        C164   1.398       .  A
C163        H172   1.084       .  S
C164       C1001   1.418       .  A
C164        S168   1.797       .  S
C165        C166   1.408   1_655  A
C165       C1000   1.418       .  A
C166        C167   1.399       .  A
C166        H173   1.083       .  S
C167        C998   1.410   1_455  A
C167        S169   1.805       .  S
S168        H171   1.408       .  S
S169        H170   1.404       .  S
C174        C175   1.400       .  A
C174       C1015   1.411       .  A
C175        C176   1.400       .  A
C175        H184   1.084       .  S
C176        C177   1.420       .  A
C176        S180   1.800       .  S
C177       C1014   1.408       .  A
C178        C179   1.400       .  A
C178       C1013   1.408   1_455  A
C178        H185   1.083       .  S
C179       C1010   1.411       .  A
C179        S181   1.805       .  S
S180        H183   1.408       .  S
S181        H182   1.404       .  S
C186        C191   1.411       .  A
C186       C1023   1.400       .  A
C187        C188   1.398       .  A
C187       C1022   1.400   1_455  A
C187        H196   1.084       .  S
C188        C189   1.420       .  A
C188        S192   1.802       .  S
C189       C1026   1.406   1_455  A
C190        C191   1.401       .  A
C190       C1025   1.406       .  A
C190        H197   1.084       .  S
C191        S193   1.804       .  S
S192        H195   1.408       .  S
S193        H194   1.405       .  S
C198        C199   1.406       .  A
C198       C1039   1.419       .  A
C199        C200   1.399       .  A
C199        H208   1.083       .  S
C200        C201   1.411       .  A
C200        S204   1.805       .  S
C201       C1038   1.401       .  A
C202        C203   1.400       .  A
C202       C1037   1.401       .  A
C202        H209   1.084       .  S
C203       C1034   1.419       .  A
C203        S205   1.801       .  S
S204        H207   1.405       .  S
S205        H206   1.407       .  S
N210        N211   1.319       .  A
N210        N634   1.315   1_545  A
N210       Mn239   2.198   1_556  S
N211        C636   1.353   1_545  A
N212        N632   1.316       .  A
N212        N213   1.321       .  A
N212       Mn228   2.211       .  S
N213        C637   1.356       .  A
N214        N630   1.316   1_545  A
N214        N215   1.320       .  A
N215        C219   1.352       .  A
N216        N628   1.315       .  A
N216        N217   1.321       .  A
N217        C218   1.355       .  A
C218        N629   1.353       .  A
C218        C359   1.484       .  S
C219        N631   1.356   1_545  A
C219        C350   1.488       .  S
N220       N1062   1.316   1_455  A
N220        N221   1.318       .  A
N220       Mn250   2.196       .  S
N221        C229   1.351       .  A
N222        N223   1.321       .  A
N222       N1060   1.315       .  A
N223        C230   1.355       .  A
N224       N1058   1.315   1_455  A
N224        N225   1.320       .  A
N225       C1066   1.353       .  A
N226       N1056   1.316       .  A
N226        N227   1.322       .  A
N226       Mn228   2.214       .  S
N227       C1065   1.357       .  A
Mn228     Cl1506   2.554       .  S
C229       N1063   1.357   1_455  A
C229        C398   1.486       .  S
C230       N1061   1.353       .  A
C230        C407   1.487       .  S
N231        N232   1.320       .  A
N231       N1073   1.315       .  A
N232       C1076   1.354       .  A
N233       N1071   1.315   1_455  A
N233        N234   1.321       .  A
N233       Mn251   2.208   1_556  S
N234       C1077   1.356   1_455  A
N235       N1069   1.315       .  A
N235        N236   1.320       .  A
N235       Mn239   2.200   1_556  S
N236        C241   1.353       .  A
N237       N1067   1.315   1_455  A
N237        N238   1.319       .  A
N238        C240   1.354   1_455  A
Mn239      Cl879   2.544   1_545  S
C240       N1068   1.354       .  A
C240        C374   1.487       .  S
C241       N1070   1.356       .  A
C241        C386   1.491       .  S
N242        N243   1.319       .  A
N242        N666   1.314       .  A
N243        C253   1.353       .  A
N244        N245   1.321       .  A
N244        N664   1.315   1_545  A
N245        C254   1.356   1_545  A
N246        N662   1.315       .  A
N246        N247   1.320       .  A
N246       Mn250   2.197       .  S
N247        C672   1.353       .  A
N248        N660   1.314   1_545  A
N248        N249   1.320       .  A
N248       Mn251   2.198   1_556  S
N249        C671   1.354   1_545  A
Mn250      Cl670   2.543   1_455  S
Cl252     Mn1482   2.554       .  S
Cl252      Mn866   2.544   1_565  S
Cl252      Mn668   2.543   1_655  S
C253        N667   1.354       .  A
C253        C335   1.484       .  S
C254        N665   1.353       .  A
C254        C326   1.486       .  S
N255        C260   1.353       .  A
N255        C259   1.352       .  A
N255        H287   1.034       .  S
N256        C263   1.352       .  A
N256        C264   1.353       .  A
N257        C262   1.352       .  A
N257        C261   1.353       .  A
N257        H288   1.033       .  S
N258        C265   1.351       .  A
N258        C266   1.351       .  A
C259        C267   1.387       .  A
C259        C275   1.416       .  A
C260        C276   1.415       .  A
C260        C268   1.387       .  A
C261        C269   1.387       .  A
C261        C278   1.416       .  A
C262        C277   1.416       .  A
C262        C270   1.388       .  A
C263        C275   1.416       .  A
C263        C271   1.387       .  A
C264        C278   1.416       .  A
C264        C272   1.386       .  A
C265        C273   1.387       .  A
C265        C276   1.415       .  A
C266        C274   1.386       .  A
C266        C277   1.414       .  A
C267        C268   1.376       .  A
C267        H279   1.082       .  S
C268        H280   1.082       .  S
C269        C270   1.376       .  A
C269        H281   1.082       .  S
C270        H282   1.082       .  S
C271        C272   1.372       .  A
C271        H283   1.082       .  S
C272        H284   1.082       .  S
C273        C274   1.372       .  A
C273        H285   1.082       .  S
C274        H286   1.082       .  S
C275        C410   1.487       .  S
C276        C395   1.487       .  S
C277        C371   1.483       .  S
C278        C383   1.487       .  S
N289        C294   1.353       .  A
N289        C293   1.352       .  A
N289        H321   1.035       .  S
N290        C297   1.351       .  A
N290        C298   1.351       .  A
N291        C296   1.353       .  A
N291        C295   1.352       .  A
N291        H322   1.036       .  S
N292        C299   1.352       .  A
N292        C300   1.352       .  A
C293        C301   1.387       .  A
C293        C309   1.415       .  A
C294        C310   1.415       .  A
C294        C302   1.387       .  A
C295        C303   1.387       .  A
C295        C312   1.414       .  A
C296        C311   1.415       .  A
C296        C304   1.387       .  A
C297        C309   1.413       .  A
C297        C305   1.387       .  A
C298        C312   1.412       .  A
C298        C306   1.386       .  A
C299        C307   1.386       .  A
C299        C310   1.414       .  A
C300        C308   1.386       .  A
C300        C311   1.414       .  A
C301        C302   1.376       .  A
C301        H313   1.082       .  S
C302        H314   1.082       .  S
C303        C304   1.375       .  A
C303        H315   1.082       .  S
C304        H316   1.082       .  S
C305        C306   1.372       .  A
C305        H317   1.082       .  S
C306        H318   1.082       .  S
C307        C308   1.373       .  A
C307        H319   1.082       .  S
C308        H320   1.082       .  S
C309        C362   1.484       .  S
C310        C347   1.487       .  S
C311        C323   1.488       .  S
C312        C338   1.483       .  S
C323        C324   1.401       .  A
C323        C746   1.411       .  A
C324        C325   1.401       .  A
C324        H333   1.084       .  S
C325        C744   1.418       .  A
C325        S329   1.803       .  S
C326        C743   1.418       .  A
C326        C327   1.406   1_565  A
C327        C328   1.399       .  A
C327        H334   1.083       .  S
C328        C741   1.411   1_545  A
C328        S330   1.804       .  S
S329        H332   1.407       .  S
S330        H331   1.406       .  S
C335        C754   1.407       .  A
C335        C340   1.418       .  A
C336        C753   1.407   1_545  A
C336        C337   1.398       .  A
C336        H345   1.083       .  S
C337        C756   1.411   1_545  A
C337        S341   1.806       .  S
C338        C755   1.411       .  A
C338        C339   1.400       .  A
C339        C340   1.398       .  A
C339        H346   1.084       .  S
C340        S342   1.802       .  S
S341        H344   1.404       .  S
S342        H343   1.408       .  S
C347        C766   1.401       .  A
C347        C352   1.410       .  A
C348        C765   1.401   1_545  A
C348        C349   1.400       .  A
C348        H357   1.084       .  S
C349        C350   1.419       .  A
C349        S353   1.799       .  S
C350        C769   1.406   1_545  A
C351        C768   1.406       .  A
C351        C352   1.400       .  A
C351        H358   1.084       .  S
C352        S354   1.804       .  S
S353        H356   1.404       .  S
S354        H355   1.406       .  S
C359        C778   1.407       .  A
C359        C364   1.416       .  A
C360        C777   1.407   1_545  A
C360        C361   1.399       .  A
C360        H369   1.084       .  S
C361        C780   1.411       .  A
C361        S365   1.805       .  S
C362        C779   1.411       .  A
C362        C363   1.401       .  A
C363        C364   1.399       .  A
C363        H370   1.084       .  S
C364        S366   1.801       .  S
S365        H368   1.405       .  S
S366        H367   1.407       .  S
C371        C372   1.399       .  A
C371       C1212   1.410       .  A
C372        C373   1.398       .  A
C372        H381   1.084       .  S
C373       C1210   1.418       .  A
C373        S377   1.797       .  S
C374       C1209   1.418       .  A
C374        C375   1.408   1_655  A
C375        C376   1.399       .  A
C375        H382   1.083       .  S
C376       C1207   1.410   1_455  A
C376        S378   1.805       .  S
S377        H380   1.408       .  S
S378        H379   1.404       .  S
C383        C384   1.400       .  A
C383       C1224   1.411       .  A
C384        C385   1.400       .  A
C384        H393   1.084       .  S
C385        C386   1.420       .  A
C385        S389   1.800       .  S
C386       C1223   1.408       .  A
C387       C1222   1.408   1_455  A
C387        C388   1.400       .  A
C387        H394   1.083       .  S
C388       C1219   1.411       .  A
C388        S390   1.805       .  S
S389        H392   1.408       .  S
S390        H391   1.404       .  S
C395       C1232   1.400       .  A
C395        C400   1.411       .  A
C396       C1231   1.400   1_455  A
C396        C397   1.398       .  A
C396        H405   1.084       .  S
C397        C398   1.420       .  A
C397        S401   1.802       .  S
C398       C1235   1.406   1_455  A
C399       C1234   1.406       .  A
C399        C400   1.401       .  A
C399        H406   1.084       .  S
C400        S402   1.804       .  S
S401        H404   1.408       .  S
S402        H403   1.405       .  S
C407        C408   1.406       .  A
C407       C1248   1.419       .  A
C408        C409   1.399       .  A
C408        H417   1.083       .  S
C409        C410   1.411       .  A
C409        S413   1.805       .  S
C410       C1247   1.401       .  A
C411       C1246   1.401       .  A
C411        C412   1.400       .  A
C411        H418   1.084       .  S
C412       C1243   1.419       .  A
C412        S414   1.801       .  S
S413        H416   1.405       .  S
S414        H415   1.407       .  S
N419        N420   1.319       .  A
N419       Mn448   2.198       .  S
N421        N422   1.321       .  A
N421       Mn437   2.211       .  S
N423        N424   1.320       .  A
N423       Mn657   2.201       .  S
N424        C428   1.352       .  A
N425        N426   1.321       .  A
N425       Mn646   2.211       .  S
N426        C427   1.355       .  A
C427        C568   1.484       .  S
C428        C559   1.488       .  S
N429       N1271   1.316   1_455  A
N429        N430   1.318       .  A
N429       Mn459   2.196       .  S
N430        C438   1.351       .  A
N431        N432   1.321       .  A
N431       N1269   1.315       .  A
N431       Mn646   2.209       .  S
N432        C439   1.355       .  A
N433       N1267   1.315   1_455  A
N433        N434   1.320       .  A
N433       Mn668   2.201       .  S
N434       C1275   1.353       .  A
N435       N1265   1.316       .  A
N435        N436   1.322       .  A
N435       Mn437   2.214       .  S
N436       C1274   1.357       .  A
Mn437       N634   2.211   1_554  S
Mn437       N640   2.209   1_554  S
Mn437      Cl879   2.554       .  S
C438       N1272   1.357   1_455  A
C438        C607   1.486       .  S
C439       N1270   1.353       .  A
C439        C616   1.487       .  S
N440        N441   1.320       .  A
N440       N1282   1.315       .  A
N440       Mn657   2.204       .  S
N441       C1285   1.354       .  A
N442       N1280   1.315   1_455  A
N442        N443   1.321       .  A
N442       Mn460   2.208       .  S
N443       C1286   1.356   1_455  A
N444       N1278   1.315       .  A
N444        N445   1.320       .  A
N444       Mn448   2.200       .  S
N445        C450   1.353       .  A
N446       N1276   1.315   1_455  A
N446        N447   1.319       .  A
N446       Mn669   2.198       .  S
N447        C449   1.354   1_455  A
Mn448       N632   2.201       .  S
Mn448       N649   2.204       .  S
Mn448     Cl1506   2.544       .  S
C449       N1277   1.354       .  A
C449        C583   1.487       .  S
C450       N1279   1.356       .  A
C450        C595   1.491       .  S
N451        N452   1.319       .  A
N451       Mn668   2.197       .  S
N452        C462   1.353       .  A
N453        N454   1.321       .  A
N453       Mn669   2.210       .  S
N454        C463   1.356       .  A
N455        N456   1.320       .  A
N455       Mn459   2.197       .  S
N457        N458   1.320       .  A
N457       Mn460   2.198       .  S
Mn459       N642   2.201   1_554  S
Mn459       N660   2.197   1_554  S
Mn460       N655   2.198       .  S
Mn460       N662   2.210       .  S
Mn460      Cl670   2.553   1_455  S
Cl461      Mn855   2.554       .  S
Cl461     Mn1493   2.544       .  S
Cl461      Mn669   2.553   1_655  S
C462        C544   1.484       .  S
C463        C535   1.486       .  S
N464        C469   1.353       .  A
N464        C468   1.352       .  A
N464        H496   1.034       .  S
N465        C472   1.352       .  A
N465        C473   1.353       .  A
N466        C471   1.352       .  A
N466        C470   1.353       .  A
N466        H497   1.033       .  S
N467        C474   1.351       .  A
N467        C475   1.351       .  A
C468        C476   1.387       .  A
C468        C484   1.416       .  A
C469        C485   1.415       .  A
C469        C477   1.387       .  A
C470        C478   1.387       .  A
C470        C487   1.416       .  A
C471        C486   1.416       .  A
C471        C479   1.388       .  A
C472        C484   1.416       .  A
C472        C480   1.387       .  A
C473        C487   1.416       .  A
C473        C481   1.386       .  A
C474        C482   1.387       .  A
C474        C485   1.415       .  A
C475        C483   1.386       .  A
C475        C486   1.414       .  A
C476        C477   1.376       .  A
C476        H488   1.082       .  S
C477        H489   1.082       .  S
C478        C479   1.376       .  A
C478        H490   1.082       .  S
C479        H491   1.082       .  S
C480        C481   1.372       .  A
C480        H492   1.082       .  S
C481        H493   1.082       .  S
C482        C483   1.372       .  A
C482        H494   1.082       .  S
C483        H495   1.082       .  S
C484        C619   1.487       .  S
C485        C604   1.487       .  S
C486        C580   1.483       .  S
C487        C592   1.487       .  S
N498        C503   1.353   1_565  A
N498        C502   1.352   1_565  A
N498        H530   1.035       .  S
N499        C506   1.351       .  A
N499        C507   1.351       .  A
N500        C505   1.353   1_565  A
N500        C504   1.352   1_565  A
N500        H531   1.036       .  S
N501        C508   1.352       .  A
N501        C509   1.352       .  A
C502        C510   1.387       .  A
C502        C518   1.415       .  A
C503        C519   1.415   1_545  A
C503        C511   1.387       .  A
C504        C512   1.387       .  A
C504        C521   1.414   1_545  A
C505        C520   1.415   1_545  A
C505        C513   1.387       .  A
C506        C518   1.413   1_565  A
C506        C514   1.387       .  A
C507        C521   1.412       .  A
C507        C515   1.386       .  A
C508        C516   1.386       .  A
C508        C519   1.414       .  A
C509        C517   1.386       .  A
C509        C520   1.414       .  A
C510        C511   1.376       .  A
C510        H522   1.082       .  S
C511        H523   1.082       .  S
C512        C513   1.375       .  A
C512        H524   1.082       .  S
C513        H525   1.082       .  S
C514        C515   1.372       .  A
C514        H526   1.082       .  S
C515        H527   1.082       .  S
C516        C517   1.373       .  A
C516        H528   1.082       .  S
C517        H529   1.082       .  S
C518        C571   1.484       .  S
C519        C556   1.487       .  S
C520        C532   1.488       .  S
C521        C547   1.483       .  S
C532        C533   1.401       .  A
C533        C534   1.401       .  A
C533        H542   1.084       .  S
C534        S538   1.803       .  S
C535        C536   1.406       .  A
C536        C537   1.399       .  A
C536        H543   1.083       .  S
C537        S539   1.804       .  S
S538        H541   1.407       .  S
S539        H540   1.406       .  S
C544        C549   1.418       .  A
C545        C546   1.398       .  A
C545        H554   1.083       .  S
C546        S550   1.806       .  S
C547        C548   1.400       .  A
C548        C549   1.398       .  A
C548        H555   1.084       .  S
C549        S551   1.802       .  S
S550        H553   1.404       .  S
S551        H552   1.408       .  S
C556        C561   1.410       .  A
C557        C558   1.400       .  A
C557        H566   1.084       .  S
C558        C559   1.419       .  A
C558        S562   1.799       .  S
C560        C561   1.400       .  A
C560        H567   1.084       .  S
C561        S563   1.804       .  S
S562        H565   1.404       .  S
S563        H564   1.406       .  S
C568        C573   1.416       .  A
C569        C570   1.399       .  A
C569        H578   1.084       .  S
C570        S574   1.805       .  S
C571        C572   1.401   1_545  A
C572        C573   1.399       .  A
C572        H579   1.084       .  S
C573        S575   1.801       .  S
S574        H577   1.405       .  S
S575        H576   1.407       .  S
C580        C581   1.399       .  A
C580       C1421   1.410       .  A
C581        C582   1.398       .  A
C581        H590   1.084       .  S
C582       C1419   1.418       .  A
C582        S586   1.797       .  S
C583       C1418   1.418       .  A
C583        C584   1.408   1_655  A
C584        C585   1.399       .  A
C584        H591   1.083       .  S
C585       C1416   1.410   1_455  A
C585        S587   1.805       .  S
S586        H589   1.408       .  S
S587        H588   1.404       .  S
C592        C593   1.400       .  A
C592       C1433   1.411       .  A
C593        C594   1.400       .  A
C593        H602   1.084       .  S
C594        C595   1.420       .  A
C594        S598   1.800       .  S
C595       C1432   1.408       .  A
C596       C1431   1.408   1_455  A
C596        C597   1.400       .  A
C596        H603   1.083       .  S
C597       C1428   1.411       .  A
C597        S599   1.805       .  S
S598        H601   1.408       .  S
S599        H600   1.404       .  S
C604       C1441   1.400       .  A
C604        C609   1.411       .  A
C605       C1440   1.400   1_455  A
C605        C606   1.398       .  A
C605        H614   1.084       .  S
C606        C607   1.420       .  A
C606        S610   1.802       .  S
C607       C1444   1.406   1_455  A
C608       C1443   1.406       .  A
C608        C609   1.401       .  A
C608        H615   1.084       .  S
C609        S611   1.804       .  S
S610        H613   1.408       .  S
S611        H612   1.405       .  S
C616        C617   1.406       .  A
C616       C1457   1.419       .  A
C617        C618   1.399       .  A
C617        H626   1.083       .  S
C618        C619   1.411       .  A
C618        S622   1.805       .  S
C619       C1456   1.401       .  A
C620       C1455   1.401       .  A
C620        C621   1.400       .  A
C620        H627   1.084       .  S
C621       C1452   1.419       .  A
C621        S623   1.801       .  S
S622        H625   1.405       .  S
S623        H624   1.407       .  S
N628        N629   1.319       .  A
N628       Mn657   2.198   1_556  S
N630        N631   1.321       .  A
N630       Mn646   2.211       .  S
N632        N633   1.320       .  A
N633        C637   1.352       .  A
N634        N635   1.321       .  A
N635        C636   1.355       .  A
C636        C777   1.484       .  S
C637        C768   1.488       .  S
N638       N1480   1.316   1_455  A
N638        N639   1.318       .  A
N638       Mn668   2.196       .  S
N639        C647   1.351       .  A
N640        N641   1.321       .  A
N640       N1478   1.315       .  A
N641        C648   1.355       .  A
N642       N1476   1.315   1_455  A
N642        N643   1.320       .  A
N643       C1484   1.353       .  A
N644       N1474   1.316       .  A
N644        N645   1.322       .  A
N644       Mn646   2.214       .  S
N645       C1483   1.357       .  A
Mn646     Cl1088   2.554       .  S
C647       N1481   1.357   1_455  A
C647        C816   1.486       .  S
C648       N1479   1.353       .  A
C648        C825   1.487       .  S
N649        N650   1.320       .  A
N649       N1491   1.315       .  A
N650       C1494   1.354       .  A
N651       N1489   1.315   1_455  A
N651        N652   1.321       .  A
N651       Mn669   2.208   1_556  S
N652       C1495   1.356   1_455  A
N653       N1487   1.315       .  A
N653        N654   1.320       .  A
N653       Mn657   2.200   1_556  S
N654        C659   1.353       .  A
N655       N1485   1.315   1_455  A
N655        N656   1.319       .  A
N656        C658   1.354   1_455  A
Mn657     Cl1297   2.544       .  S
C658       N1486   1.354       .  A
C658        C792   1.487       .  S
C659       N1488   1.356       .  A
C659        C804   1.491       .  S
N660        N661   1.319       .  A
N661        C671   1.353       .  A
N662        N663   1.321       .  A
N663        C672   1.356       .  A
N664        N665   1.320       .  A
N664       Mn668   2.197       .  S
N666        N667   1.320       .  A
N666       Mn669   2.198   1_556  S
Cl670     Mn1064   2.554       .  S
Cl670     Mn1284   2.544       .  S
C671        C753   1.484       .  S
C672        C744   1.486       .  S
N673        C678   1.353       .  A
N673        C677   1.352       .  A
N673        H705   1.034       .  S
N674        C681   1.352       .  A
N674        C682   1.353       .  A
N675        C680   1.352       .  A
N675        C679   1.353       .  A
N675        H706   1.033       .  S
N676        C683   1.351       .  A
N676        C684   1.351       .  A
C677        C685   1.387       .  A
C677        C693   1.416       .  A
C678        C694   1.415       .  A
C678        C686   1.387       .  A
C679        C687   1.387       .  A
C679        C696   1.416       .  A
C680        C695   1.416       .  A
C680        C688   1.388       .  A
C681        C693   1.416       .  A
C681        C689   1.387       .  A
C682        C696   1.416       .  A
C682        C690   1.386       .  A
C683        C691   1.387       .  A
C683        C694   1.415       .  A
C684        C692   1.386       .  A
C684        C695   1.414       .  A
C685        C686   1.376       .  A
C685        H697   1.082       .  S
C686        H698   1.082       .  S
C687        C688   1.376       .  A
C687        H699   1.082       .  S
C688        H700   1.082       .  S
C689        C690   1.372       .  A
C689        H701   1.082       .  S
C690        H702   1.082       .  S
C691        C692   1.372       .  A
C691        H703   1.082       .  S
C692        H704   1.082       .  S
C693        C828   1.487       .  S
C694        C813   1.487       .  S
C695        C789   1.483       .  S
C696        C801   1.487       .  S
N707        C712   1.353   1_565  A
N707        C711   1.352   1_565  A
N707        H739   1.035       .  S
N708        C715   1.351       .  A
N708        C716   1.351       .  A
N709        C714   1.353   1_565  A
N709        C713   1.352   1_565  A
N709        H740   1.036       .  S
N710        C717   1.352       .  A
N710        C718   1.352       .  A
C711        C719   1.387       .  A
C711        C727   1.415       .  A
C712        C728   1.415   1_545  A
C712        C720   1.387       .  A
C713        C721   1.387       .  A
C713        C730   1.414   1_545  A
C714        C729   1.415   1_545  A
C714        C722   1.387       .  A
C715        C727   1.413   1_565  A
C715        C723   1.387       .  A
C716        C730   1.412       .  A
C716        C724   1.386       .  A
C717        C725   1.386       .  A
C717        C728   1.414       .  A
C718        C726   1.386       .  A
C718        C729   1.414       .  A
C719        C720   1.376       .  A
C719        H731   1.082       .  S
C720        H732   1.082       .  S
C721        C722   1.375       .  A
C721        H733   1.082       .  S
C722        H734   1.082       .  S
C723        C724   1.372       .  A
C723        H735   1.082       .  S
C724        H736   1.082       .  S
C725        C726   1.373       .  A
C725        H737   1.082       .  S
C726        H738   1.082       .  S
C727        C780   1.484       .  S
C728        C765   1.487       .  S
C729        C741   1.488       .  S
C730        C756   1.483       .  S
C741        C742   1.401       .  A
C742        C743   1.401       .  A
C742        H751   1.084       .  S
C743        S747   1.803       .  S
C744        C745   1.406       .  A
C745        C746   1.399       .  A
C745        H752   1.083       .  S
C746        S748   1.804       .  S
S747        H750   1.407       .  S
S748        H749   1.406       .  S
C753        C758   1.418       .  A
C754        C755   1.398       .  A
C754        H763   1.083       .  S
C755        S759   1.806       .  S
C756        C757   1.400       .  A
C757        C758   1.398       .  A
C757        H764   1.084       .  S
C758        S760   1.802       .  S
S759        H762   1.404       .  S
S760        H761   1.408       .  S
C765        C770   1.410       .  A
C766        C767   1.400       .  A
C766        H775   1.084       .  S
C767        C768   1.419       .  A
C767        S771   1.799       .  S
C769        C770   1.400       .  A
C769        H776   1.084       .  S
C770        S772   1.804       .  S
S771        H774   1.404       .  S
S772        H773   1.406       .  S
C777        C782   1.416       .  A
C778        C779   1.399       .  A
C778        H787   1.084       .  S
C779        S783   1.805       .  S
C780        C781   1.401   1_545  A
C781        C782   1.399       .  A
C781        H788   1.084       .  S
C782        S784   1.801       .  S
S783        H786   1.405       .  S
S784        H785   1.407       .  S
C789        C790   1.399       .  A
C789       C1630   1.410       .  A
C790        C791   1.398       .  A
C790        H799   1.084       .  S
C791       C1628   1.418       .  A
C791        S795   1.797       .  S
C792       C1627   1.418       .  A
C792        C793   1.408   1_655  A
C793        C794   1.399       .  A
C793        H800   1.083       .  S
C794       C1625   1.410   1_455  A
C794        S796   1.805       .  S
S795        H798   1.408       .  S
S796        H797   1.404       .  S
C801        C802   1.400       .  A
C801       C1642   1.411       .  A
C802        C803   1.400       .  A
C802        H811   1.084       .  S
C803        C804   1.420       .  A
C803        S807   1.800       .  S
C804       C1641   1.408       .  A
C805       C1640   1.408   1_455  A
C805        C806   1.400       .  A
C805        H812   1.083       .  S
C806       C1637   1.411       .  A
C806        S808   1.805       .  S
S807        H810   1.408       .  S
S808        H809   1.404       .  S
C813       C1650   1.400       .  A
C813        C818   1.411       .  A
C814       C1649   1.400   1_455  A
C814        C815   1.398       .  A
C814        H823   1.084       .  S
C815        C816   1.420       .  A
C815        S819   1.802       .  S
C816       C1653   1.406   1_455  A
C817       C1652   1.406       .  A
C817        C818   1.401       .  A
C817        H824   1.084       .  S
C818        S820   1.804       .  S
S819        H822   1.408       .  S
S820        H821   1.405       .  S
C825        C826   1.406       .  A
C825       C1666   1.419       .  A
C826        C827   1.399       .  A
C826        H835   1.083       .  S
C827        C828   1.411       .  A
C827        S831   1.805       .  S
C828       C1665   1.401       .  A
C829       C1664   1.401       .  A
C829        C830   1.400       .  A
C829        H836   1.084       .  S
C830       C1661   1.419       .  A
C830        S832   1.801       .  S
S831        H834   1.405       .  S
S832        H833   1.407       .  S
N837        N838   1.319       .  A
N837       N1261   1.315   1_545  A
N837       Mn866   2.198       .  S
N838       C1263   1.353   1_545  A
N839       N1259   1.316       .  A
N839        N840   1.321       .  A
N839       Mn855   2.211       .  S
N840       C1264   1.356       .  A
N841       N1257   1.316   1_545  A
N841        N842   1.320       .  A
N841      Mn1075   2.201       .  S
N842        C846   1.352       .  A
N843       N1255   1.315       .  A
N843        N844   1.321       .  A
N843      Mn1064   2.211       .  S
N844        C845   1.355       .  A
C845       N1256   1.353       .  A
C845        C986   1.484       .  S
C846       N1258   1.356   1_545  A
C846        C977   1.488       .  S
N847        N848   1.318       .  A
N847       Mn877   2.196       .  S
N848        C856   1.351       .  A
N849        N850   1.321       .  A
N849      Mn1064   2.209       .  S
N850        C857   1.355   1_655  A
N851        N852   1.320       .  A
N851      Mn1086   2.201       .  S
N853        N854   1.322       .  A
N853       Mn855   2.214       .  S
Mn855      N1052   2.211   1_554  S
Mn855      N1058   2.209   1_554  S
C856       C1025   1.486       .  S
C857       C1034   1.487       .  S
N858        N859   1.320       .  A
N858      Mn1075   2.204       .  S
N860        N861   1.321       .  A
N860       Mn878   2.208       .  S
N862        N863   1.320       .  A
N862       Mn866   2.200       .  S
N863        C868   1.353       .  A
N864        N865   1.319       .  A
N864      Mn1087   2.198       .  S
N865        C867   1.354       .  A
Mn866      N1050   2.201       .  S
Mn866      N1067   2.204       .  S
C867       C1001   1.487       .  S
C868       C1013   1.491       .  S
N869        N870   1.319       .  A
N869       N1293   1.314       .  A
N869      Mn1086   2.197       .  S
N870        C880   1.353       .  A
N871        N872   1.321       .  A
N871       N1291   1.315   1_545  A
N871      Mn1087   2.210       .  S
N872        C881   1.356   1_545  A
N873       N1289   1.315       .  A
N873        N874   1.320       .  A
N873       Mn877   2.197       .  S
N874       C1299   1.353       .  A
N875       N1287   1.314   1_545  A
N875        N876   1.320       .  A
N875       Mn878   2.198       .  S
N876       C1298   1.354   1_545  A
Mn877      N1060   2.201   1_554  S
Mn877      N1078   2.197   1_554  S
Mn877     Cl1297   2.543       .  S
Mn878      N1073   2.198       .  S
Mn878      N1080   2.210       .  S
Mn878     Cl1088   2.553   1_545  S
Cl879     Mn1295   2.543       .  S
Cl879     Mn1087   2.553   1_565  S
C880       N1294   1.354       .  A
C880        C962   1.484       .  S
C881       N1292   1.353       .  A
C881        C953   1.486       .  S
N882        C887   1.353   1_655  A
N882        C886   1.352   1_655  A
N882        H914   1.034       .  S
N883        C890   1.352   1_455  A
N883        C891   1.353   1_455  A
N884        C889   1.352   1_655  A
N884        C888   1.353   1_655  A
N884        H915   1.033       .  S
N885        C892   1.351       .  A
N885        C893   1.351       .  A
C886        C894   1.387       .  A
C886        C902   1.416       .  A
C887        C903   1.415   1_455  A
C887        C895   1.387       .  A
C888        C896   1.387       .  A
C888        C905   1.416       .  A
C889        C904   1.416   1_455  A
C889        C897   1.388       .  A
C890        C902   1.416   1_655  A
C890        C898   1.387       .  A
C891        C905   1.416   1_655  A
C891        C899   1.386       .  A
C892        C900   1.387       .  A
C892        C903   1.415       .  A
C893        C901   1.386       .  A
C893        C904   1.414       .  A
C894        C895   1.376       .  A
C894        H906   1.082       .  S
C895        H907   1.082       .  S
C896        C897   1.376       .  A
C896        H908   1.082       .  S
C897        H909   1.082       .  S
C898        C899   1.372       .  A
C898        H910   1.082       .  S
C899        H911   1.082       .  S
C900        C901   1.372       .  A
C900        H912   1.082       .  S
C901        H913   1.082       .  S
C902       C1037   1.487       .  S
C903       C1022   1.487       .  S
C904        C998   1.483       .  S
C905       C1010   1.487       .  S
N916        C921   1.353       .  A
N916        C920   1.352       .  A
N916        H948   1.035       .  S
N917        C924   1.351       .  A
N917        C925   1.351       .  A
N918        C923   1.353       .  A
N918        C922   1.352       .  A
N918        H949   1.036       .  S
N919        C926   1.352       .  A
N919        C927   1.352       .  A
C920        C928   1.387       .  A
C920        C936   1.415       .  A
C921        C937   1.415       .  A
C921        C929   1.387       .  A
C922        C930   1.387       .  A
C922        C939   1.414       .  A
C923        C938   1.415       .  A
C923        C931   1.387       .  A
C924        C936   1.413       .  A
C924        C932   1.387       .  A
C925        C939   1.412       .  A
C925        C933   1.386       .  A
C926        C934   1.386       .  A
C926        C937   1.414       .  A
C927        C935   1.386       .  A
C927        C938   1.414       .  A
C928        C929   1.376       .  A
C928        H940   1.082       .  S
C929        H941   1.082       .  S
C930        C931   1.375       .  A
C930        H942   1.082       .  S
C931        H943   1.082       .  S
C932        C933   1.372       .  A
C932        H944   1.082       .  S
C933        H945   1.082       .  S
C934        C935   1.373       .  A
C934        H946   1.082       .  S
C935        H947   1.082       .  S
C936        C989   1.484       .  S
C937        C974   1.487       .  S
C938        C950   1.488       .  S
C939        C965   1.483       .  S
C950        C951   1.401       .  A
C950       C1373   1.411       .  A
C951        C952   1.401       .  A
C951        H960   1.084       .  S
C952       C1371   1.418       .  A
C952        S956   1.803       .  S
C953       C1370   1.418       .  A
C953        C954   1.406   1_565  A
C954        C955   1.399       .  A
C954        H961   1.083       .  S
C955       C1368   1.411   1_545  A
C955        S957   1.804       .  S
S956        H959   1.407       .  S
S957        H958   1.406       .  S
C962       C1381   1.407       .  A
C962        C967   1.418       .  A
C963       C1380   1.407   1_545  A
C963        C964   1.398       .  A
C963        H972   1.083       .  S
C964       C1383   1.411   1_545  A
C964        S968   1.806       .  S
C965       C1382   1.411       .  A
C965        C966   1.400       .  A
C966        C967   1.398       .  A
C966        H973   1.084       .  S
C967        S969   1.802       .  S
S968        H971   1.404       .  S
S969        H970   1.408       .  S
C974       C1393   1.401       .  A
C974        C979   1.410       .  A
C975       C1392   1.401   1_545  A
C975        C976   1.400       .  A
C975        H984   1.084       .  S
C976        C977   1.419       .  A
C976        S980   1.799       .  S
C977       C1396   1.406   1_545  A
C978       C1395   1.406       .  A
C978        C979   1.400       .  A
C978        H985   1.084       .  S
C979        S981   1.804       .  S
S980        H983   1.404       .  S
S981        H982   1.406       .  S
C986       C1405   1.407       .  A
C986        C991   1.416       .  A
C987       C1404   1.407   1_545  A
C987        C988   1.399       .  A
C987        H996   1.084       .  S
C988       C1407   1.411       .  A
C988        S992   1.805       .  S
C989       C1406   1.411       .  A
C989        C990   1.401       .  A
C990        C991   1.399       .  A
C990        H997   1.084       .  S
C991        S993   1.801       .  S
S992        H995   1.405       .  S
S993        H994   1.407       .  S
C998        C999   1.399       .  A
C999       C1000   1.398       .  A
C999       H1008   1.084       .  S
C1000      S1004   1.797       .  S
C1001      C1002   1.408       .  A
C1002      C1003   1.399       .  A
C1002      H1009   1.083       .  S
C1003      S1005   1.805       .  S
S1004      H1007   1.408       .  S
S1005      H1006   1.404       .  S
C1010      C1011   1.400   1_455  A
C1011      C1012   1.400       .  A
C1011      H1020   1.084       .  S
C1012      C1013   1.420       .  A
C1012      S1016   1.800       .  S
C1014      C1015   1.400       .  A
C1014      H1021   1.083       .  S
C1015      S1017   1.805       .  S
S1016      H1019   1.408       .  S
S1017      H1018   1.404       .  S
C1022      C1027   1.411       .  A
C1023      C1024   1.398       .  A
C1023      H1032   1.084       .  S
C1024      C1025   1.420       .  A
C1024      S1028   1.802       .  S
C1026      C1027   1.401       .  A
C1026      H1033   1.084       .  S
C1027      S1029   1.804       .  S
S1028      H1031   1.408       .  S
S1029      H1030   1.405       .  S
C1034      C1035   1.406   1_455  A
C1035      C1036   1.399       .  A
C1035      H1044   1.083       .  S
C1036      C1037   1.411   1_655  A
C1036      S1040   1.805       .  S
C1038      C1039   1.400       .  A
C1038      H1045   1.084       .  S
C1039      S1041   1.801       .  S
S1040      H1043   1.405       .  S
S1041      H1042   1.407       .  S
N1046      N1047   1.319       .  A
N1046      N1470   1.315   1_545  A
N1046     Mn1075   2.198   1_556  S
N1047      C1472   1.353   1_545  A
N1048      N1468   1.316       .  A
N1048      N1049   1.321       .  A
N1048     Mn1064   2.211       .  S
N1049      C1473   1.356       .  A
N1050      N1466   1.316   1_545  A
N1050      N1051   1.320       .  A
N1051      C1055   1.352       .  A
N1052      N1464   1.315       .  A
N1052      N1053   1.321       .  A
N1053      C1054   1.355       .  A
C1054      N1465   1.353       .  A
C1054      C1195   1.484       .  S
C1055      N1467   1.356   1_545  A
C1055      C1186   1.488       .  S
N1056      N1057   1.318       .  A
N1056     Mn1086   2.196       .  S
N1057      C1065   1.351       .  A
N1058      N1059   1.321       .  A
N1059      C1066   1.355   1_655  A
N1060      N1061   1.320       .  A
N1062      N1063   1.322       .  A
N1062     Mn1064   2.214       .  S
C1065      C1234   1.486       .  S
C1066      C1243   1.487       .  S
N1067      N1068   1.320       .  A
N1069      N1070   1.321       .  A
N1069     Mn1087   2.208   1_556  S
N1071      N1072   1.320       .  A
N1071     Mn1075   2.200   1_556  S
N1072      C1077   1.353       .  A
N1073      N1074   1.319       .  A
N1074      C1076   1.354       .  A
C1076      C1210   1.487       .  S
C1077      C1222   1.491       .  S
N1078      N1079   1.319       .  A
N1078      N1502   1.314       .  A
N1079      C1089   1.353       .  A
N1080      N1081   1.321       .  A
N1080      N1500   1.315   1_545  A
N1081      C1090   1.356   1_545  A
N1082      N1498   1.315       .  A
N1082      N1083   1.320       .  A
N1082     Mn1086   2.197       .  S
N1083      C1508   1.353       .  A
N1084      N1496   1.314   1_545  A
N1084      N1085   1.320       .  A
N1084     Mn1087   2.198   1_556  S
N1085      C1507   1.354   1_545  A
Mn1086    Cl1506   2.543       .  S
Cl1088    Mn1504   2.543       .  S
C1089      N1503   1.354       .  A
C1089      C1171   1.484       .  S
C1090      N1501   1.353       .  A
C1090      C1162   1.486       .  S
N1091      C1096   1.353   1_655  A
N1091      C1095   1.352   1_655  A
N1091      H1123   1.034       .  S
N1092      C1099   1.352   1_455  A
N1092      C1100   1.353   1_455  A
N1093      C1098   1.352   1_655  A
N1093      C1097   1.353   1_655  A
N1093      H1124   1.033       .  S
N1094      C1101   1.351       .  A
N1094      C1102   1.351       .  A
C1095      C1103   1.387       .  A
C1095      C1111   1.416       .  A
C1096      C1112   1.415   1_455  A
C1096      C1104   1.387       .  A
C1097      C1105   1.387       .  A
C1097      C1114   1.416       .  A
C1098      C1113   1.416   1_455  A
C1098      C1106   1.388       .  A
C1099      C1111   1.416   1_655  A
C1099      C1107   1.387       .  A
C1100      C1114   1.416   1_655  A
C1100      C1108   1.386       .  A
C1101      C1109   1.387       .  A
C1101      C1112   1.415       .  A
C1102      C1110   1.386       .  A
C1102      C1113   1.414       .  A
C1103      C1104   1.376       .  A
C1103      H1115   1.082       .  S
C1104      H1116   1.082       .  S
C1105      C1106   1.376       .  A
C1105      H1117   1.082       .  S
C1106      H1118   1.082       .  S
C1107      C1108   1.372       .  A
C1107      H1119   1.082       .  S
C1108      H1120   1.082       .  S
C1109      C1110   1.372       .  A
C1109      H1121   1.082       .  S
C1110      H1122   1.082       .  S
C1111      C1246   1.487       .  S
C1112      C1231   1.487       .  S
C1113      C1207   1.483       .  S
C1114      C1219   1.487       .  S
N1125      C1130   1.353       .  A
N1125      C1129   1.352       .  A
N1125      H1157   1.035       .  S
N1126      C1133   1.351       .  A
N1126      C1134   1.351       .  A
N1127      C1132   1.353       .  A
N1127      C1131   1.352       .  A
N1127      H1158   1.036       .  S
N1128      C1135   1.352       .  A
N1128      C1136   1.352       .  A
C1129      C1137   1.387       .  A
C1129      C1145   1.415       .  A
C1130      C1146   1.415       .  A
C1130      C1138   1.387       .  A
C1131      C1139   1.387       .  A
C1131      C1148   1.414       .  A
C1132      C1147   1.415       .  A
C1132      C1140   1.387       .  A
C1133      C1145   1.413       .  A
C1133      C1141   1.387       .  A
C1134      C1148   1.412       .  A
C1134      C1142   1.386       .  A
C1135      C1143   1.386       .  A
C1135      C1146   1.414       .  A
C1136      C1144   1.386       .  A
C1136      C1147   1.414       .  A
C1137      C1138   1.376       .  A
C1137      H1149   1.082       .  S
C1138      H1150   1.082       .  S
C1139      C1140   1.375       .  A
C1139      H1151   1.082       .  S
C1140      H1152   1.082       .  S
C1141      C1142   1.372       .  A
C1141      H1153   1.082       .  S
C1142      H1154   1.082       .  S
C1143      C1144   1.373       .  A
C1143      H1155   1.082       .  S
C1144      H1156   1.082       .  S
C1145      C1198   1.484       .  S
C1146      C1183   1.487       .  S
C1147      C1159   1.488       .  S
C1148      C1174   1.483       .  S
C1159      C1160   1.401       .  A
C1159      C1582   1.411       .  A
C1160      C1161   1.401       .  A
C1160      H1169   1.084       .  S
C1161      C1580   1.418       .  A
C1161      S1165   1.803       .  S
C1162      C1579   1.418       .  A
C1162      C1163   1.406   1_565  A
C1163      C1164   1.399       .  A
C1163      H1170   1.083       .  S
C1164      C1577   1.411   1_545  A
C1164      S1166   1.804       .  S
S1165      H1168   1.407       .  S
S1166      H1167   1.406       .  S
C1171      C1590   1.407       .  A
C1171      C1176   1.418       .  A
C1172      C1589   1.407   1_545  A
C1172      C1173   1.398       .  A
C1172      H1181   1.083       .  S
C1173      C1592   1.411   1_545  A
C1173      S1177   1.806       .  S
C1174      C1591   1.411       .  A
C1174      C1175   1.400       .  A
C1175      C1176   1.398       .  A
C1175      H1182   1.084       .  S
C1176      S1178   1.802       .  S
S1177      H1180   1.404       .  S
S1178      H1179   1.408       .  S
C1183      C1602   1.401       .  A
C1183      C1188   1.410       .  A
C1184      C1601   1.401   1_545  A
C1184      C1185   1.400       .  A
C1184      H1193   1.084       .  S
C1185      C1186   1.419       .  A
C1185      S1189   1.799       .  S
C1186      C1605   1.406   1_545  A
C1187      C1604   1.406       .  A
C1187      C1188   1.400       .  A
C1187      H1194   1.084       .  S
C1188      S1190   1.804       .  S
S1189      H1192   1.404       .  S
S1190      H1191   1.406       .  S
C1195      C1614   1.407       .  A
C1195      C1200   1.416       .  A
C1196      C1613   1.407   1_545  A
C1196      C1197   1.399       .  A
C1196      H1205   1.084       .  S
C1197      C1616   1.411       .  A
C1197      S1201   1.805       .  S
C1198      C1615   1.411       .  A
C1198      C1199   1.401       .  A
C1199      C1200   1.399       .  A
C1199      H1206   1.084       .  S
C1200      S1202   1.801       .  S
S1201      H1204   1.405       .  S
S1202      H1203   1.407       .  S
C1207      C1208   1.399       .  A
C1208      C1209   1.398       .  A
C1208      H1217   1.084       .  S
C1209      S1213   1.797       .  S
C1210      C1211   1.408       .  A
C1211      C1212   1.399       .  A
C1211      H1218   1.083       .  S
C1212      S1214   1.805       .  S
S1213      H1216   1.408       .  S
S1214      H1215   1.404       .  S
C1219      C1220   1.400   1_455  A
C1220      C1221   1.400       .  A
C1220      H1229   1.084       .  S
C1221      C1222   1.420       .  A
C1221      S1225   1.800       .  S
C1223      C1224   1.400       .  A
C1223      H1230   1.083       .  S
C1224      S1226   1.805       .  S
S1225      H1228   1.408       .  S
S1226      H1227   1.404       .  S
C1231      C1236   1.411       .  A
C1232      C1233   1.398       .  A
C1232      H1241   1.084       .  S
C1233      C1234   1.420       .  A
C1233      S1237   1.802       .  S
C1235      C1236   1.401       .  A
C1235      H1242   1.084       .  S
C1236      S1238   1.804       .  S
S1237      H1240   1.408       .  S
S1238      H1239   1.405       .  S
C1243      C1244   1.406   1_455  A
C1244      C1245   1.399       .  A
C1244      H1253   1.083       .  S
C1245      C1246   1.411   1_655  A
C1245      S1249   1.805       .  S
C1247      C1248   1.400       .  A
C1247      H1254   1.084       .  S
C1248      S1250   1.801       .  S
S1249      H1252   1.405       .  S
S1250      H1251   1.407       .  S
N1255      N1256   1.319       .  A
N1255     Mn1284   2.198       .  S
N1257      N1258   1.321       .  A
N1257     Mn1273   2.211       .  S
N1259      N1260   1.320       .  A
N1259     Mn1493   2.201       .  S
N1260      C1264   1.352       .  A
N1261      N1262   1.321       .  A
N1261     Mn1482   2.211       .  S
N1262      C1263   1.355       .  A
C1263      C1404   1.484       .  S
C1264      C1395   1.488       .  S
N1265      N1266   1.318       .  A
N1265     Mn1295   2.196       .  S
N1266      C1274   1.351       .  A
N1267      N1268   1.321       .  A
N1267     Mn1482   2.209       .  S
N1268      C1275   1.355   1_655  A
N1269      N1270   1.320       .  A
N1269     Mn1504   2.201       .  S
N1271      N1272   1.322       .  A
N1271     Mn1273   2.214       .  S
Mn1273     N1470   2.211   1_554  S
Mn1273     N1476   2.209   1_554  S
C1274      C1443   1.486       .  S
C1275      C1452   1.487       .  S
N1276      N1277   1.320       .  A
N1276     Mn1493   2.204       .  S
N1278      N1279   1.321       .  A
N1278     Mn1296   2.208       .  S
N1280      N1281   1.320       .  A
N1280     Mn1284   2.200       .  S
N1281      C1286   1.353       .  A
N1282      N1283   1.319       .  A
N1282     Mn1505   2.198       .  S
N1283      C1285   1.354       .  A
Mn1284     N1468   2.201       .  S
Mn1284     N1485   2.204       .  S
C1285      C1419   1.487       .  S
C1286      C1431   1.491       .  S
N1287      N1288   1.319       .  A
N1287     Mn1504   2.197       .  S
N1288      C1298   1.353       .  A
N1289      N1290   1.321       .  A
N1289     Mn1505   2.210       .  S
N1290      C1299   1.356       .  A
N1291      N1292   1.320       .  A
N1291     Mn1295   2.197       .  S
N1293      N1294   1.320       .  A
N1293     Mn1296   2.198       .  S
Mn1295     N1478   2.201   1_554  S
Mn1295     N1496   2.197   1_554  S
Mn1296     N1491   2.198       .  S
Mn1296     N1498   2.210       .  S
Mn1296    Cl1506   2.553       .  S
Cl1297    Mn1505   2.553       .  S
C1298      C1380   1.484       .  S
C1299      C1371   1.486       .  S
N1300      C1305   1.353   1_655  A
N1300      C1304   1.352   1_655  A
N1300      H1332   1.034       .  S
N1301      C1308   1.352   1_455  A
N1301      C1309   1.353   1_455  A
N1302      C1307   1.352   1_655  A
N1302      C1306   1.353   1_655  A
N1302      H1333   1.033       .  S
N1303      C1310   1.351       .  A
N1303      C1311   1.351       .  A
C1304      C1312   1.387       .  A
C1304      C1320   1.416       .  A
C1305      C1321   1.415   1_455  A
C1305      C1313   1.387       .  A
C1306      C1314   1.387       .  A
C1306      C1323   1.416       .  A
C1307      C1322   1.416   1_455  A
C1307      C1315   1.388       .  A
C1308      C1320   1.416   1_655  A
C1308      C1316   1.387       .  A
C1309      C1323   1.416   1_655  A
C1309      C1317   1.386       .  A
C1310      C1318   1.387       .  A
C1310      C1321   1.415       .  A
C1311      C1319   1.386       .  A
C1311      C1322   1.414       .  A
C1312      C1313   1.376       .  A
C1312      H1324   1.082       .  S
C1313      H1325   1.082       .  S
C1314      C1315   1.376       .  A
C1314      H1326   1.082       .  S
C1315      H1327   1.082       .  S
C1316      C1317   1.372       .  A
C1316      H1328   1.082       .  S
C1317      H1329   1.082       .  S
C1318      C1319   1.372       .  A
C1318      H1330   1.082       .  S
C1319      H1331   1.082       .  S
C1320      C1455   1.487       .  S
C1321      C1440   1.487       .  S
C1322      C1416   1.483       .  S
C1323      C1428   1.487       .  S
N1334      C1339   1.353   1_565  A
N1334      C1338   1.352   1_565  A
N1334      H1366   1.035       .  S
N1335      C1342   1.351       .  A
N1335      C1343   1.351       .  A
N1336      C1341   1.353   1_565  A
N1336      C1340   1.352   1_565  A
N1336      H1367   1.036       .  S
N1337      C1344   1.352       .  A
N1337      C1345   1.352       .  A
C1338      C1346   1.387       .  A
C1338      C1354   1.415       .  A
C1339      C1355   1.415   1_545  A
C1339      C1347   1.387       .  A
C1340      C1348   1.387       .  A
C1340      C1357   1.414   1_545  A
C1341      C1356   1.415   1_545  A
C1341      C1349   1.387       .  A
C1342      C1354   1.413   1_565  A
C1342      C1350   1.387       .  A
C1343      C1357   1.412       .  A
C1343      C1351   1.386       .  A
C1344      C1352   1.386       .  A
C1344      C1355   1.414       .  A
C1345      C1353   1.386       .  A
C1345      C1356   1.414       .  A
C1346      C1347   1.376       .  A
C1346      H1358   1.082       .  S
C1347      H1359   1.082       .  S
C1348      C1349   1.375       .  A
C1348      H1360   1.082       .  S
C1349      H1361   1.082       .  S
C1350      C1351   1.372       .  A
C1350      H1362   1.082       .  S
C1351      H1363   1.082       .  S
C1352      C1353   1.373       .  A
C1352      H1364   1.082       .  S
C1353      H1365   1.082       .  S
C1354      C1407   1.484       .  S
C1355      C1392   1.487       .  S
C1356      C1368   1.488       .  S
C1357      C1383   1.483       .  S
C1368      C1369   1.401       .  A
C1369      C1370   1.401       .  A
C1369      H1378   1.084       .  S
C1370      S1374   1.803       .  S
C1371      C1372   1.406       .  A
C1372      C1373   1.399       .  A
C1372      H1379   1.083       .  S
C1373      S1375   1.804       .  S
S1374      H1377   1.407       .  S
S1375      H1376   1.406       .  S
C1380      C1385   1.418       .  A
C1381      C1382   1.398       .  A
C1381      H1390   1.083       .  S
C1382      S1386   1.806       .  S
C1383      C1384   1.400       .  A
C1384      C1385   1.398       .  A
C1384      H1391   1.084       .  S
C1385      S1387   1.802       .  S
S1386      H1389   1.404       .  S
S1387      H1388   1.408       .  S
C1392      C1397   1.410       .  A
C1393      C1394   1.400       .  A
C1393      H1402   1.084       .  S
C1394      C1395   1.419       .  A
C1394      S1398   1.799       .  S
C1396      C1397   1.400       .  A
C1396      H1403   1.084       .  S
C1397      S1399   1.804       .  S
S1398      H1401   1.404       .  S
S1399      H1400   1.406       .  S
C1404      C1409   1.416       .  A
C1405      C1406   1.399       .  A
C1405      H1414   1.084       .  S
C1406      S1410   1.805       .  S
C1407      C1408   1.401   1_545  A
C1408      C1409   1.399       .  A
C1408      H1415   1.084       .  S
C1409      S1411   1.801       .  S
S1410      H1413   1.405       .  S
S1411      H1412   1.407       .  S
C1416      C1417   1.399       .  A
C1417      C1418   1.398       .  A
C1417      H1426   1.084       .  S
C1418      S1422   1.797       .  S
C1419      C1420   1.408       .  A
C1420      C1421   1.399       .  A
C1420      H1427   1.083       .  S
C1421      S1423   1.805       .  S
S1422      H1425   1.408       .  S
S1423      H1424   1.404       .  S
C1428      C1429   1.400   1_455  A
C1429      C1430   1.400       .  A
C1429      H1438   1.084       .  S
C1430      C1431   1.420       .  A
C1430      S1434   1.800       .  S
C1432      C1433   1.400       .  A
C1432      H1439   1.083       .  S
C1433      S1435   1.805       .  S
S1434      H1437   1.408       .  S
S1435      H1436   1.404       .  S
C1440      C1445   1.411       .  A
C1441      C1442   1.398       .  A
C1441      H1450   1.084       .  S
C1442      C1443   1.420       .  A
C1442      S1446   1.802       .  S
C1444      C1445   1.401       .  A
C1444      H1451   1.084       .  S
C1445      S1447   1.804       .  S
S1446      H1449   1.408       .  S
S1447      H1448   1.405       .  S
C1452      C1453   1.406   1_455  A
C1453      C1454   1.399       .  A
C1453      H1462   1.083       .  S
C1454      C1455   1.411   1_655  A
C1454      S1458   1.805       .  S
C1456      C1457   1.400       .  A
C1456      H1463   1.084       .  S
C1457      S1459   1.801       .  S
S1458      H1461   1.405       .  S
S1459      H1460   1.407       .  S
N1464      N1465   1.319       .  A
N1464     Mn1493   2.198   1_556  S
N1466      N1467   1.321       .  A
N1466     Mn1482   2.211       .  S
N1468      N1469   1.320       .  A
N1469      C1473   1.352       .  A
N1470      N1471   1.321       .  A
N1471      C1472   1.355       .  A
C1472      C1613   1.484       .  S
C1473      C1604   1.488       .  S
N1474      N1475   1.318       .  A
N1474     Mn1504   2.196       .  S
N1475      C1483   1.351       .  A
N1476      N1477   1.321       .  A
N1477      C1484   1.355   1_655  A
N1478      N1479   1.320       .  A
N1480      N1481   1.322       .  A
N1480     Mn1482   2.214       .  S
C1483      C1652   1.486       .  S
C1484      C1661   1.487       .  S
N1485      N1486   1.320       .  A
N1487      N1488   1.321       .  A
N1487     Mn1505   2.208   1_556  S
N1489      N1490   1.320       .  A
N1489     Mn1493   2.200   1_556  S
N1490      C1495   1.353       .  A
N1491      N1492   1.319       .  A
N1492      C1494   1.354       .  A
C1494      C1628   1.487       .  S
C1495      C1640   1.491       .  S
N1496      N1497   1.319       .  A
N1497      C1507   1.353       .  A
N1498      N1499   1.321       .  A
N1499      C1508   1.356       .  A
N1500      N1501   1.320       .  A
N1500     Mn1504   2.197       .  S
N1502      N1503   1.320       .  A
N1502     Mn1505   2.198   1_556  S
C1507      C1589   1.484       .  S
C1508      C1580   1.486       .  S
N1509      C1514   1.353   1_655  A
N1509      C1513   1.352   1_655  A
N1509      H1541   1.034       .  S
N1510      C1517   1.352   1_455  A
N1510      C1518   1.353   1_455  A
N1511      C1516   1.352   1_655  A
N1511      C1515   1.353   1_655  A
N1511      H1542   1.033       .  S
N1512      C1519   1.351       .  A
N1512      C1520   1.351       .  A
C1513      C1521   1.387       .  A
C1513      C1529   1.416       .  A
C1514      C1530   1.415   1_455  A
C1514      C1522   1.387       .  A
C1515      C1523   1.387       .  A
C1515      C1532   1.416       .  A
C1516      C1531   1.416   1_455  A
C1516      C1524   1.388       .  A
C1517      C1529   1.416   1_655  A
C1517      C1525   1.387       .  A
C1518      C1532   1.416   1_655  A
C1518      C1526   1.386       .  A
C1519      C1527   1.387       .  A
C1519      C1530   1.415       .  A
C1520      C1528   1.386       .  A
C1520      C1531   1.414       .  A
C1521      C1522   1.376       .  A
C1521      H1533   1.082       .  S
C1522      H1534   1.082       .  S
C1523      C1524   1.376       .  A
C1523      H1535   1.082       .  S
C1524      H1536   1.082       .  S
C1525      C1526   1.372       .  A
C1525      H1537   1.082       .  S
C1526      H1538   1.082       .  S
C1527      C1528   1.372       .  A
C1527      H1539   1.082       .  S
C1528      H1540   1.082       .  S
C1529      C1664   1.487       .  S
C1530      C1649   1.487       .  S
C1531      C1625   1.483       .  S
C1532      C1637   1.487       .  S
N1543      C1548   1.353   1_565  A
N1543      C1547   1.352   1_565  A
N1543      H1575   1.035       .  S
N1544      C1551   1.351       .  A
N1544      C1552   1.351       .  A
N1545      C1550   1.353   1_565  A
N1545      C1549   1.352   1_565  A
N1545      H1576   1.036       .  S
N1546      C1553   1.352       .  A
N1546      C1554   1.352       .  A
C1547      C1555   1.387       .  A
C1547      C1563   1.415       .  A
C1548      C1564   1.415   1_545  A
C1548      C1556   1.387       .  A
C1549      C1557   1.387       .  A
C1549      C1566   1.414   1_545  A
C1550      C1565   1.415   1_545  A
C1550      C1558   1.387       .  A
C1551      C1563   1.413   1_565  A
C1551      C1559   1.387       .  A
C1552      C1566   1.412       .  A
C1552      C1560   1.386       .  A
C1553      C1561   1.386       .  A
C1553      C1564   1.414       .  A
C1554      C1562   1.386       .  A
C1554      C1565   1.414       .  A
C1555      C1556   1.376       .  A
C1555      H1567   1.082       .  S
C1556      H1568   1.082       .  S
C1557      C1558   1.375       .  A
C1557      H1569   1.082       .  S
C1558      H1570   1.082       .  S
C1559      C1560   1.372       .  A
C1559      H1571   1.082       .  S
C1560      H1572   1.082       .  S
C1561      C1562   1.373       .  A
C1561      H1573   1.082       .  S
C1562      H1574   1.082       .  S
C1563      C1616   1.484       .  S
C1564      C1601   1.487       .  S
C1565      C1577   1.488       .  S
C1566      C1592   1.483       .  S
C1577      C1578   1.401       .  A
C1578      C1579   1.401       .  A
C1578      H1587   1.084       .  S
C1579      S1583   1.803       .  S
C1580      C1581   1.406       .  A
C1581      C1582   1.399       .  A
C1581      H1588   1.083       .  S
C1582      S1584   1.804       .  S
S1583      H1586   1.407       .  S
S1584      H1585   1.406       .  S
C1589      C1594   1.418       .  A
C1590      C1591   1.398       .  A
C1590      H1599   1.083       .  S
C1591      S1595   1.806       .  S
C1592      C1593   1.400       .  A
C1593      C1594   1.398       .  A
C1593      H1600   1.084       .  S
C1594      S1596   1.802       .  S
S1595      H1598   1.404       .  S
S1596      H1597   1.408       .  S
C1601      C1606   1.410       .  A
C1602      C1603   1.400       .  A
C1602      H1611   1.084       .  S
C1603      C1604   1.419       .  A
C1603      S1607   1.799       .  S
C1605      C1606   1.400       .  A
C1605      H1612   1.084       .  S
C1606      S1608   1.804       .  S
S1607      H1610   1.404       .  S
S1608      H1609   1.406       .  S
C1613      C1618   1.416       .  A
C1614      C1615   1.399       .  A
C1614      H1623   1.084       .  S
C1615      S1619   1.805       .  S
C1616      C1617   1.401   1_545  A
C1617      C1618   1.399       .  A
C1617      H1624   1.084       .  S
C1618      S1620   1.801       .  S
S1619      H1622   1.405       .  S
S1620      H1621   1.407       .  S
C1625      C1626   1.399       .  A
C1626      C1627   1.398       .  A
C1626      H1635   1.084       .  S
C1627      S1631   1.797       .  S
C1628      C1629   1.408       .  A
C1629      C1630   1.399       .  A
C1629      H1636   1.083       .  S
C1630      S1632   1.805       .  S
S1631      H1634   1.408       .  S
S1632      H1633   1.404       .  S
C1637      C1638   1.400   1_455  A
C1638      C1639   1.400       .  A
C1638      H1647   1.084       .  S
C1639      C1640   1.420       .  A
C1639      S1643   1.800       .  S
C1641      C1642   1.400       .  A
C1641      H1648   1.083       .  S
C1642      S1644   1.805       .  S
S1643      H1646   1.408       .  S
S1644      H1645   1.404       .  S
C1649      C1654   1.411       .  A
C1650      C1651   1.398       .  A
C1650      H1659   1.084       .  S
C1651      C1652   1.420       .  A
C1651      S1655   1.802       .  S
C1653      C1654   1.401       .  A
C1653      H1660   1.084       .  S
C1654      S1656   1.804       .  S
S1655      H1658   1.408       .  S
S1656      H1657   1.405       .  S
C1661      C1662   1.406   1_455  A
C1662      C1663   1.399       .  A
C1662      H1671   1.083       .  S
C1663      C1664   1.411   1_655  A
C1663      S1667   1.805       .  S
C1665      C1666   1.400       .  A
C1665      H1672   1.084       .  S
C1666      S1668   1.801       .  S
S1667      H1670   1.405       .  S
S1668      H1669   1.407       .  S
