geometry optimzed in LAMMPS
_audit_creation_date              2020-12-01 
_audit_creation_method            'lammps2cif' 
_symmetry_space_group_name_H-M    'P1' 
_symmetry_Int_Tables_number       1 
_symmetry_cell_setting            triclinic 
loop_ 
_symmetry_equiv_pos_as_xyz 
  x,y,z 
_cell_length_a                    53.29878513 
_cell_length_b                    53.29882620111307 
_cell_length_c                    51.066408683681544 
_cell_angle_alpha                 90.0012170261197 
_cell_angle_beta                  89.98638367136094 
_cell_angle_gamma                 89.97515460460892 
loop_ 
_atom_site_label 
_atom_site_type_symbol 
_atom_site_fract_x 
_atom_site_fract_y 
_atom_site_fract_z 
_atom_site_charge 
O1          O  0.47274135  0.80636183  0.02872503    -0.73100
O2          O  0.52618788  0.80620224  0.47353518    -0.74100
O3          O  0.52634564  0.80762481  0.02869375    -0.62700
O4          O  0.47276646  0.80527037  0.47349311    -0.71100
O5          O  0.47245089  0.84694014  0.47231013    -0.70700
O6          O  0.52525855  0.84929409  0.02823795    -0.61900
O7          O  0.52530322  0.84785754  0.47221473    -0.74400
O8          O  0.47220474  0.84803735  0.02827151    -0.73200
Cu9        Cu  0.49954097  0.80491950  0.00119100     1.04600
Cu10       Cu  0.49876648  0.84950952  0.50025457     1.04300
C11         C  0.46403437  0.82716369  0.03715871     0.93100
C12         C  0.53399348  0.82692362  0.46402159     0.92200
C13         C  0.53425742  0.82877439  0.03708408     0.84400
C14         C  0.46438553  0.82582050  0.46404444     0.90600
N15         N  0.58402058  0.81463245  0.41736753    -0.27500
N16         N  0.57531329  0.83615504  0.40821515    -0.35300
C17         C  0.55649389  0.84410219  0.42370056     0.00900
C18         C  0.55298915  0.82653378  0.44325361     0.06900
C19         C  0.57063427  0.80804822  0.43861151    -0.06200
H20         H  0.54584608  0.86113460  0.42062526     0.07600
H21         H  0.57381302  0.79127846  0.45008150     0.08800
Cu22       Cu  0.58897074  0.85345472  0.37476843     0.44200
Cu23       Cu  0.61488221  0.79616576  0.40180904     0.42000
Cu24       Cu  0.64860137  0.83040516  0.35163677     0.43900
N25         N  0.60727529  0.86784847  0.34225527    -0.34900
N26         N  0.62971483  0.86018075  0.33464344    -0.29100
C27         C  0.63715032  0.87401286  0.31404887    -0.05200
C28         C  0.61832834  0.89093967  0.30822500     0.07000
C29         C  0.59960676  0.88648850  0.32638390     0.00800
H30         H  0.65481595  0.87169885  0.30388966     0.08500
H31         H  0.58201881  0.89645578  0.32834605     0.07500
N32         N  0.66144203  0.79741816  0.36831323    -0.36300
N33         N  0.64870216  0.78439307  0.38587000    -0.28500
C34         C  0.66151928  0.76336930  0.39161433    -0.03700
C35         C  0.68347060  0.76321795  0.37706796     0.04900
C36         C  0.68278774  0.78515405  0.36256869     0.03000
H37         H  0.65538310  0.74938460  0.40556350     0.08100
H38         H  0.69645519  0.79147719  0.34836773     0.06900
N39         N  0.36900439  0.85925807  0.33401748    -0.27500
N40         N  0.39076349  0.86762454  0.34286832    -0.35300
C41         C  0.39860749  0.88656309  0.32747991     0.00900
C42         C  0.38070502  0.89052851  0.30833033     0.06900
C43         C  0.36213795  0.87301435  0.31312044    -0.06200
H44         H  0.41583650  0.89693997  0.33030843     0.07600
H45         H  0.34518007  0.87008891  0.30189086     0.08800
Cu46       Cu  0.40834123  0.85332533  0.37591147     0.44200
Cu47       Cu  0.35072023  0.82824174  0.34947166     0.42000
Cu48       Cu  0.38310162  0.79573290  0.40218976     0.43900
N49         N  0.42251781  0.83550640  0.40885832    -0.34900
N50         N  0.41407638  0.81377769  0.41770829    -0.29100
C51         C  0.42783712  0.80678286  0.43855317    -0.05200
C52         C  0.44544829  0.82525202  0.44325976     0.07000
C53         C  0.44152686  0.84320706  0.42417432     0.00800
H54         H  0.42483697  0.78983728  0.44978827     0.08500
H55         H  0.45195658  0.86040832  0.42136775     0.07500
N56         N  0.35019368  0.78314083  0.38518910    -0.36300
N57         N  0.33838179  0.79488384  0.36601285    -0.28500
C58         C  0.31792410  0.78158155  0.35934053    -0.03700
C59         C  0.31668881  0.76051301  0.37521618     0.04900
C60         C  0.33747580  0.76220857  0.39138946     0.03000
H61         H  0.30484325  0.78703420  0.34418222     0.08100
H62         H  0.34322611  0.74905570  0.40635879     0.06900
N63         N  0.62943500  0.85860554  0.16857949    -0.27500
N64         N  0.60905669  0.86897293  0.15850197    -0.35300
C65         C  0.60224712  0.88856654  0.17349171     0.00900
C66         C  0.61942283  0.89083619  0.19360997     0.06900
C67         C  0.63648620  0.87166903  0.18987651    -0.06200
H68         H  0.58627953  0.90056826  0.16970639     0.07600
H69         H  0.65255255  0.86724689  0.20197480     0.08800
Cu70       Cu  0.59190195  0.85673902  0.12429932     0.44200
Cu71       Cu  0.64612169  0.82661726  0.15369200     0.42000
Cu72       Cu  0.61849679  0.80090450  0.09504812     0.43900
N73         N  0.57784575  0.84000466  0.09062964    -0.34900
N74         N  0.58702215  0.81897205  0.08077001    -0.29100
C75         C  0.57285135  0.81180882  0.06034879    -0.05200
C76         C  0.55411524  0.82937536  0.05691428     0.07000
C77         C  0.55786463  0.84711479  0.07629633     0.00800
H78         H  0.57609946  0.79514439  0.04873325     0.08500
H79         H  0.54649320  0.86351573  0.08019313     0.07500
N80         N  0.64972314  0.78580752  0.11315497    -0.36300
N81         N  0.65932852  0.79481055  0.13506983    -0.28500
C82         C  0.67878478  0.78040583  0.14236539    -0.03700
C83         C  0.68175075  0.76154128  0.12399759     0.04900
C84         C  0.66303136  0.76560592  0.10568819     0.03000
H85         H  0.69015931  0.78372765  0.15955948     0.08100
H86         H  0.65905313  0.75448728  0.08846119     0.06900
N87         N  0.36785515  0.85982745  0.16676518    -0.27500
N88         N  0.38926336  0.86865957  0.15750666    -0.35300
C89         C  0.39728478  0.88734283  0.17310760     0.00900
C90         C  0.37986290  0.89063540  0.19286654     0.06900
C91         C  0.36137270  0.87301282  0.18819425    -0.06200
H92         H  0.41428476  0.89802365  0.17000610     0.07600
H93         H  0.34472177  0.86966603  0.19979887     0.08800
Cu94       Cu  0.40616930  0.85512360  0.12379867     0.44200
Cu95       Cu  0.34969399  0.82899411  0.15089961     0.42000
Cu96       Cu  0.38167318  0.79677666  0.09765733     0.43900
N97         N  0.42055568  0.83740592  0.09094899    -0.34900
N98         N  0.41246510  0.81550465  0.08217654    -0.29100
C99         C  0.42678252  0.80844276  0.06176048    -0.05200
C100        C  0.44439713  0.82699508  0.05727842     0.07000
C101        C  0.43986290  0.84512182  0.07601808     0.00800
H102        H  0.42431863  0.79125935  0.05077952     0.08500
H103        H  0.45022083  0.86233418  0.07902569     0.07500
N104        N  0.34915992  0.78364545  0.11541657    -0.36300
N105        N  0.33734327  0.79568213  0.13440388    -0.28500
C106        C  0.31686515  0.78256041  0.14132086    -0.03700
C107        C  0.31566907  0.76113439  0.12601782     0.04900
C108        C  0.33651312  0.76247138  0.10981525     0.03000
H109        H  0.30400989  0.78813411  0.15664590     0.08100
H110        H  0.34195229  0.74925372  0.09477369     0.06900
O111        O  0.63963045  0.91807724  0.27895653    -0.73100
O112        O  0.64105486  0.97092183  0.22297585    -0.74100
O113        O  0.64019059  0.97150971  0.27848862    -0.62700
O114        O  0.64040177  0.91750924  0.22366124    -0.71100
O115        O  0.59873889  0.91866745  0.22260146    -0.70700
O116        O  0.59850732  0.97144645  0.27859422    -0.61900
O117        O  0.59938331  0.97139528  0.22244749    -0.74400
O118        O  0.59795264  0.91860106  0.27858917    -0.73200
Cu119      Cu  0.64178517  0.94450965  0.25106434     1.04600
Cu120      Cu  0.59718694  0.94506335  0.25054482     1.04300
C121        C  0.61862061  0.91007619  0.28760658     0.93100
C122        C  0.62041737  0.97921644  0.21365411     0.92200
C123        C  0.61934324  0.97970624  0.28740854     0.84400
C124        C  0.61954764  0.90983097  0.21431680     0.90600
O125        O  0.40209315  0.91734909  0.27856521    -0.73100
O126        O  0.40282645  0.97027814  0.22228036    -0.74100
O127        O  0.40330113  0.97028093  0.27853616    -0.62700
O128        O  0.40163021  0.91738042  0.22233223    -0.71100
O129        O  0.35996341  0.91779133  0.22326094    -0.70700
O130        O  0.36164932  0.97168498  0.27820281    -0.61900
O131        O  0.36116883  0.97117926  0.22278733    -0.74400
O132        O  0.36042624  0.91815092  0.27866287    -0.73200
Cu133      Cu  0.40394283  0.94377844  0.25042653     1.04600
Cu134      Cu  0.35936635  0.94473053  0.25076297     1.04300
C135        C  0.38111379  0.90952709  0.28751673     0.93100
C136        C  0.38206337  0.97890008  0.21356284     0.92200
C137        C  0.38268236  0.97930507  0.28716464     0.84400
C138        C  0.38052916  0.90939533  0.21387814     0.90600
O139        O  0.52858492  0.04416554  0.47351821    -0.73100
O140        O  0.47515398  0.04369033  0.02890918    -0.74100
O141        O  0.47573982  0.04290500  0.47292007    -0.62700
O142        O  0.52771280  0.04488768  0.02976875    -0.71100
O143        O  0.52726353  0.08655808  0.02893967    -0.70700
O144        O  0.47458505  0.08457066  0.47273038    -0.61900
O145        O  0.47404547  0.08535869  0.02806901    -0.74400
O146        O  0.52804591  0.08583671  0.47325886    -0.73200
Cu147      Cu  0.50187295  0.04246068  0.00126687     1.04600
Cu148      Cu  0.50098220  0.08705031  0.50068871     1.04300
C149        C  0.53652874  0.06505133  0.46447766     0.93100
C150        C  0.46640504  0.06447232  0.03736939     0.92200
C151        C  0.46689473  0.06346646  0.46399840     0.84400
C152        C  0.53531248  0.06596985  0.03861893     0.90600
N153        N  0.37306973  0.03138659  0.33206604    -0.27500
N154        N  0.39310293  0.02083603  0.34270346    -0.35300
C155        C  0.39989809  0.00091235  0.32811021     0.00900
C156        C  0.38306355  0.99862492  0.30764596     0.06900
C157        C  0.36625523  0.01813004  0.31081040    -0.06200
H158        H  0.41559161  0.98870705  0.33240419     0.07600
H159        H  0.35046116  0.02260792  0.29835209     0.08800
Cu160      Cu  0.40985009  0.03356245  0.37700360     0.44200
Cu161      Cu  0.35626321  0.06386842  0.34612291     0.42000
Cu162      Cu  0.38538961  0.09226394  0.40230980     0.43900
N163        N  0.42408463  0.05163505  0.40988273    -0.34900
N164        N  0.41584339  0.07365862  0.41816936    -0.29100
C165        C  0.42989365  0.08122333  0.43853273    -0.05200
C166        C  0.44757335  0.06292539  0.44357342     0.07000
C167        C  0.44333201  0.04434870  0.42517558     0.00800
H168        H  0.42720660  0.09862261  0.44908317     0.08500
H169        H  0.45384515  0.02714889  0.42265404     0.07500
N170        N  0.35356890  0.10655978  0.38461863    -0.36300
N171        N  0.34294017  0.09629488  0.36387782    -0.28500
C172        C  0.32255220  0.10977627  0.35736237    -0.03700
C173        C  0.32008207  0.12950922  0.37496768     0.04900
C174        C  0.34020718  0.12675825  0.39196532     0.03000
H175        H  0.31030067  0.10516909  0.34120061     0.08100
H176        H  0.34492571  0.13844889  0.40854309     0.06900
N177        N  0.58527219  0.07684771  0.41616751    -0.27500
N178        N  0.57760618  0.05437782  0.40865597    -0.35300
C179        C  0.55944099  0.04653898  0.42502760     0.00900
C180        C  0.55527658  0.06514342  0.44341377     0.06900
C181        C  0.57185107  0.08414479  0.43714636    -0.06200
H182        H  0.54961566  0.02885879  0.42331337     0.07600
H183        H  0.57428876  0.10178192  0.44732166     0.08800
Cu184      Cu  0.59156876  0.03592470  0.37583895     0.44200
Cu185      Cu  0.61483802  0.09569581  0.39877222     0.42000
Cu186      Cu  0.64796026  0.06220770  0.34759723     0.43900
N187        N  0.60908555  0.02161153  0.34262461    -0.34900
N188        N  0.63045648  0.03049851  0.33330023    -0.29100
C189        C  0.63746542  0.01680665  0.31244361    -0.05200
C190        C  0.61939740  0.99874309  0.30812170     0.07000
C191        C  0.60161457  0.00231391  0.32751342     0.00800
H192        H  0.65413436  0.02020222  0.30088050     0.08500
H193        H  0.58472714  0.99146891  0.33065620     0.07500
N194        N  0.65929544  0.09645530  0.36231889    -0.36300
N195        N  0.64721137  0.10867600  0.38097404    -0.28500
C196        C  0.65960869  0.12998540  0.38639530    -0.03700
C197        C  0.68040587  0.13135300  0.37020248     0.04900
C198        C  0.67955542  0.10977878  0.35514705     0.03000
H199        H  0.65382389  0.14345625  0.40104737     0.08100
H200        H  0.69293520  0.10386198  0.34045729     0.06900
N201        N  0.58388843  0.07761823  0.08705460    -0.27500
N202        N  0.57555991  0.05555878  0.09508700    -0.35300
C203        C  0.55692403  0.04808295  0.07913289     0.00900
C204        C  0.55324138  0.06647092  0.06040489     0.06900
C205        C  0.57046991  0.08502673  0.06612603    -0.06200
H206        H  0.54690777  0.03051705  0.08094928     0.07600
H207        H  0.57377885  0.10210575  0.05521156     0.08800
Cu208      Cu  0.59059492  0.03642810  0.12688436     0.44200
Cu209      Cu  0.61535859  0.09478843  0.10252477     0.42000
Cu210      Cu  0.65168381  0.05766876  0.14853909     0.43900
N211        N  0.60991428  0.02082949  0.15825812    -0.34900
N212        N  0.63276355  0.02776738  0.16528629    -0.29100
C213        C  0.64015276  0.01385436  0.18587304    -0.05200
C214        C  0.62084904  0.99770424  0.19235629     0.07000
C215        C  0.60197459  0.00261012  0.17449694     0.00800
H216        H  0.65794422  0.01588501  0.19584516     0.08500
H217        H  0.58387347  0.99350866  0.17327519     0.07500
N218        N  0.66355863  0.09164857  0.13325878    -0.36300
N219        N  0.65000397  0.10540651  0.11704220    -0.28500
C220        C  0.66241398  0.12672875  0.11173401    -0.03700
C221        C  0.68492644  0.12652363  0.12533485     0.04900
C222        C  0.68497027  0.10388855  0.13874297     0.03000
H223        H  0.65544330  0.14120763  0.09881168     0.08100
H224        H  0.69918327  0.09696204  0.15201095     0.06900
N225        N  0.41710312  0.07572280  0.08493977    -0.27500
N226        N  0.42546546  0.05372202  0.09313513    -0.35300
C227        C  0.44404446  0.04611518  0.07716374     0.00900
C228        C  0.44766918  0.06440186  0.05833699     0.06900
C229        C  0.43041081  0.08295642  0.06390256    -0.06200
H230        H  0.45439460  0.02877727  0.07935915     0.07600
H231        H  0.42733518  0.10016405  0.05312837     0.08800
Cu232      Cu  0.41144494  0.03534430  0.12588546     0.44200
Cu233      Cu  0.38640635  0.09373310  0.10081689     0.42000
Cu234      Cu  0.35168325  0.05848983  0.14923505     0.43900
N235        N  0.39293334  0.02066189  0.15824527    -0.34900
N236        N  0.37050074  0.02833826  0.16590821    -0.29100
C237        C  0.36318687  0.01458288  0.18663315    -0.05200
C238        C  0.38209539  0.99775455  0.19256535     0.07000
C239        C  0.40070478  0.00213362  0.17423544     0.00800
H240        H  0.34561582  0.01700852  0.19694016     0.08500
H241        H  0.41838316  0.99231066  0.17236938     0.07500
N242        N  0.33899107  0.09171715  0.13261987    -0.36300
N243        N  0.35197726  0.10474087  0.11528661    -0.28500
C244        C  0.33900525  0.12539743  0.10868410    -0.03700
C245        C  0.31670351  0.12555961  0.12262378     0.04900
C246        C  0.31739437  0.10385164  0.13762941     0.03000
H247        H  0.34561148  0.13937300  0.09497109     0.08100
H248        H  0.30330479  0.09725285  0.15121759     0.06900
O249        O  0.97184883  0.58306136  0.22327909    -0.73100
O250        O  0.02636897  0.58244188  0.27754696    -0.74100
O251        O  0.02525849  0.58249479  0.22237936    -0.62700
O252        O  0.97292150  0.58323539  0.27851308    -0.71100
O253        O  0.97246421  0.54155210  0.27880725    -0.70700
O254        O  0.02488263  0.54081225  0.22211802    -0.61900
O255        O  0.02541333  0.54077289  0.27815286    -0.74400
O256        O  0.97194749  0.54138205  0.22272940    -0.73200
Cu257      Cu  0.99911048  0.58424480  0.25043580     1.04600
Cu258      Cu  0.99864620  0.53964028  0.25046173     1.04300
C259        C  0.96353456  0.56230917  0.21427128     0.93100
C260        C  0.03434610  0.56152469  0.28648073     0.92200
C261        C  0.03326115  0.56164505  0.21334955     0.84400
C262        C  0.96452486  0.56256676  0.28757458     0.90600
O263        O  0.02729177  0.30369090  0.22158131    -0.73100
O264        O  0.97442625  0.30519644  0.27753022    -0.74100
O265        O  0.97386484  0.30465659  0.22219995    -0.62700
O266        O  0.02801403  0.30445747  0.27690298    -0.71100
O267        O  0.02794702  0.34614738  0.27680763    -0.70700
O268        O  0.97480136  0.34633150  0.22147079    -0.61900
O269        O  0.97504573  0.34686821  0.27742948    -0.74400
O270        O  0.02753362  0.34536750  0.22084243    -0.73200
Cu271      Cu  0.00087719  0.30302771  0.24959780     1.04600
Cu272      Cu  0.00136654  0.34763186  0.24913657     1.04300
C273        C  0.03553569  0.32431901  0.21223437     0.93100
C274        C  0.96643748  0.32617732  0.28630457     0.92200
C275        C  0.96604166  0.32556037  0.21306361     0.84400
C276        C  0.03636951  0.32534354  0.28553007     0.90600
O277        O  0.09614894  0.41769786  0.47214818    -0.73100
O278        O  0.09683082  0.46986185  0.02880407    -0.74100
O279        O  0.09580066  0.47063286  0.47287001    -0.62700
O280        O  0.09738517  0.41706765  0.02815695    -0.71100
O281        O  0.13906662  0.41746600  0.02725760    -0.70700
O282        O  0.13748940  0.47097309  0.47238797    -0.61900
O283        O  0.13849246  0.47086356  0.02751179    -0.74400
O284        O  0.13783735  0.41750359  0.47204948    -0.73200
Cu285      Cu  0.09506043  0.44379263  0.50051614     1.04600
Cu286      Cu  0.13967259  0.44420020  0.99974381     1.04300
C287        C  0.11693455  0.40932510  0.46329184     0.93100
C288        C  0.11770728  0.47859674  0.03699850     0.92200
C289        C  0.11649617  0.47922590  0.46399670     0.84400
C290        C  0.11849770  0.40901944  0.03652254     0.90600
N291        N  0.08595169  0.57228105  0.33160103    -0.27500
N292        N  0.07643801  0.55139293  0.34142615    -0.35300
C293        C  0.05699516  0.54401830  0.32650865     0.00900
C294        C  0.05388057  0.56137870  0.30668026     0.06900
C295        C  0.07245865  0.57908089  0.31050564    -0.06200
H296        H  0.04552497  0.52767394  0.33030284     0.07600
H297        H  0.07605569  0.59555435  0.29871260     0.08800
Cu298      Cu  0.08931454  0.53479415  0.37554685     0.44200
Cu299      Cu  0.11733300  0.59008094  0.34679308     0.42000
Cu300      Cu  0.14757091  0.55937893  0.40149569     0.43900
N301        N  0.10629809  0.52146937  0.40925828    -0.34900
N302        N  0.12820572  0.52964109  0.41790223    -0.29100
C303        C  0.13502858  0.51600391  0.43885006    -0.05200
C304        C  0.11633520  0.49871829  0.44381785     0.07000
C305        C  0.09832502  0.50273629  0.42482681     0.00800
H306        H  0.15228922  0.51853904  0.44967662     0.08500
H307        H  0.08117858  0.49224084  0.42193041     0.07500
N308        N  0.16130179  0.59153107  0.38389023    -0.36300
N309        N  0.15003888  0.60297079  0.36418175    -0.28500
C310        C  0.16322399  0.62355381  0.35774861    -0.03700
C311        C  0.18385947  0.62521016  0.37420441     0.04900
C312        C  0.18197230  0.60450036  0.39051919     0.03000
H313        H  0.15815960  0.63620730  0.34206344     0.08100
H314        H  0.19441207  0.59935697  0.40636436     0.06900
N315        N  0.12768707  0.35753274  0.41854914    -0.27500
N316        N  0.10714294  0.36727335  0.40818380    -0.35300
C317        C  0.09980890  0.38699262  0.42277549     0.00900
C318        C  0.11690172  0.39000182  0.44289500     0.06900
C319        C  0.13435564  0.37112861  0.43958371    -0.06200
H320        H  0.08364047  0.39861892  0.41865351     0.07600
H321        H  0.15049190  0.36729318  0.45179490     0.08800
Cu322      Cu  0.09104519  0.35396304  0.37393354     0.44200
Cu323      Cu  0.14527008  0.32563787  0.40447133     0.42000
Cu324      Cu  0.11945855  0.29780702  0.34608151     0.43900
N325        N  0.07843096  0.33639526  0.34019494    -0.34900
N326        N  0.08795971  0.31530539  0.33081163    -0.29100
C327        C  0.07434724  0.30797158  0.30999292    -0.05200
C328        C  0.05572560  0.32555756  0.30586199     0.07000
C329        C  0.05890442  0.34337289  0.32521216     0.00800
H330        H  0.07797460  0.29128923  0.29852783     0.08500
H331        H  0.04746002  0.35982651  0.32860222     0.07500
N332        N  0.15088167  0.28400857  0.36517080    -0.36300
N333        N  0.15972175  0.29362761  0.38716667    -0.28500
C334        C  0.17954885  0.27999895  0.39511589    -0.03700
C335        C  0.18362523  0.26115919  0.37698783     0.04900
C336        C  0.16516787  0.26430660  0.35821810     0.03000
H337        H  0.19058576  0.28395132  0.41240833     0.08100
H338        H  0.16217818  0.25296872  0.34092356     0.06900
N339        N  0.08539399  0.31248219  0.16519626    -0.27500
N340        N  0.07691556  0.33431634  0.15668288    -0.35300
C341        C  0.05803413  0.34194678  0.17222547     0.00900
C342        C  0.05423881  0.32385151  0.19118005     0.06900
C343        C  0.07177330  0.30534905  0.18609936    -0.06200
H344        H  0.04768631  0.35924955  0.16973051     0.07600
H345        H  0.07488416  0.28833943  0.19719715     0.08800
Cu346      Cu  0.09126110  0.35247559  0.12416378     0.44200
Cu347      Cu  0.11659146  0.29486039  0.14934655     0.42000
Cu348      Cu  0.15114592  0.33011593  0.10016108     0.43900
N349        N  0.10929517  0.36717229  0.09174100    -0.34900
N350        N  0.13174230  0.35986629  0.08376092    -0.29100
C351        C  0.13850949  0.37366545  0.06288535    -0.05200
C352        C  0.11919327  0.39010466  0.05728701     0.07000
C353        C  0.10095596  0.38548835  0.07587668     0.00800
H354        H  0.15596622  0.37154235  0.05229492     0.08500
H355        H  0.08315148  0.39502497  0.07803152     0.07500
N356        N  0.16346428  0.29658716  0.11609558    -0.36300
N357        N  0.15049803  0.28343186  0.13336477    -0.28500
C358        C  0.16297696  0.26214142  0.13872869    -0.03700
C359        C  0.18491339  0.26182295  0.12416123     0.04900
C360        C  0.18459013  0.28404375  0.11007702     0.03000
H361        H  0.15653198  0.24804479  0.15239330     0.08100
H362        H  0.19832897  0.29040144  0.09597161     0.06900
N363        N  0.12735976  0.53087864  0.08146359    -0.27500
N364        N  0.10715799  0.52054151  0.09193213    -0.35300
C365        C  0.10058673  0.50039749  0.07764890     0.00900
C366        C  0.11774294  0.49774215  0.05756026     0.06900
C367        C  0.13453256  0.51726064  0.06058367    -0.06200
H368        H  0.08466741  0.48844009  0.08175992     0.07600
H369        H  0.15036705  0.52165143  0.04814311     0.08800
Cu370      Cu  0.08972460  0.53393418  0.12541480     0.44200
Cu371      Cu  0.14336953  0.56376291  0.09513040     0.42000
Cu372      Cu  0.11214755  0.59381543  0.14957522     0.43900
N373        N  0.07526848  0.55168877  0.15822197    -0.34900
N374        N  0.08269394  0.57409182  0.16620561    -0.29100
C375        C  0.06888409  0.58097729  0.18701838    -0.05200
C376        C  0.05226173  0.56183838  0.19261094     0.07000
C377        C  0.05682746  0.54350488  0.17407179     0.00800
H378        H  0.07101663  0.59849216  0.19749270     0.08500
H379        H  0.04709084  0.52582497  0.17185713     0.07500
N380        N  0.14448098  0.60765501  0.13229255    -0.36300
N381        N  0.15584341  0.59662403  0.11239958    -0.28500
C382        C  0.17675146  0.60948538  0.10646109    -0.03700
C383        C  0.17885205  0.62962727  0.12354286     0.04900
C384        C  0.15792525  0.62780596  0.13963216     0.03000
H385        H  0.18971017  0.60404864  0.09119545     0.08100
H386        H  0.15285220  0.63997545  0.15572243     0.06900
O387        O  0.85977466  0.41723370  0.47253124    -0.73100
O388        O  0.86040737  0.47166063  0.02735636    -0.74100
O389        O  0.85940993  0.47074263  0.47206196    -0.62700
O390        O  0.86032202  0.41813858  0.02804743    -0.71100
O391        O  0.90200019  0.41826833  0.02786515    -0.70700
O392        O  0.90108861  0.47079478  0.47129079    -0.61900
O393        O  0.90207964  0.47116688  0.02730862    -0.74400
O394        O  0.90143051  0.41795673  0.47160803    -0.73200
Cu395      Cu  0.85852210  0.44441662  0.00003304     1.04600
Cu396      Cu  0.90311271  0.44452165  0.99949752     1.04300
C397        C  0.88058736  0.40935266  0.46316955     0.93100
C398        C  0.88136603  0.47984675  0.03602100     0.92200
C399        C  0.88006390  0.47896870  0.46279246     0.84400
C400        C  0.88120638  0.41011755  0.03697600     0.90600
N401        N  0.91564409  0.31489929  0.33228013    -0.27500
N402        N  0.92354092  0.33699925  0.34071108    -0.35300
C403        C  0.94260653  0.34470396  0.32536816     0.00900
C404        C  0.94707972  0.32635840  0.30675984     0.06900
C405        C  0.92972237  0.30774058  0.31175596    -0.06200
H406        H  0.95283231  0.36205361  0.32797426     0.07600
H407        H  0.92728507  0.29038051  0.30107352     0.08800
Cu408      Cu  0.90889444  0.35488343  0.37363464     0.44200
Cu409      Cu  0.88552000  0.29565523  0.34808967     0.42000
Cu410      Cu  0.85452916  0.32558458  0.40278180     0.43900
N411        N  0.89130295  0.36815329  0.40736651    -0.34900
N412        N  0.87078847  0.35797867  0.41733975    -0.29100
C413        C  0.86357600  0.37124988  0.43847009    -0.05200
C414        C  0.88065883  0.39039459  0.44227511     0.07000
C415        C  0.89802196  0.38786035  0.42228563     0.00800
H416        H  0.84747407  0.36687591  0.45053713     0.08500
H417        H  0.91416776  0.39965602  0.41866241     0.07500
N418        N  0.84208157  0.29276346  0.38546881    -0.36300
N419        N  0.85339377  0.28170572  0.36555316    -0.28500
C420        C  0.83997978  0.26150187  0.35831734    -0.03700
C421        C  0.81910772  0.25979457  0.37443148     0.04900
C422        C  0.82120036  0.27991847  0.39148013     0.03000
H423        H  0.84471291  0.24950813  0.34196151     0.08100
H424        H  0.80838695  0.28516035  0.40696165     0.06900
N425        N  0.91489546  0.57526154  0.33448655    -0.27500
N426        N  0.92264591  0.55308134  0.34277656    -0.35300
C427        C  0.94124731  0.54494514  0.32714005     0.00900
C428        C  0.94562810  0.56309445  0.30839403     0.06900
C429        C  0.92871793  0.58210850  0.31365428    -0.06200
H430        H  0.95111035  0.52735025  0.32954338     0.07600
H431        H  0.92625625  0.59937327  0.30281031     0.08800
Cu432      Cu  0.90803319  0.53534617  0.37534829     0.44200
Cu433      Cu  0.88449622  0.59401048  0.35052247     0.42000
Cu434      Cu  0.84942750  0.55967048  0.40009409     0.43900
N435        N  0.88989587  0.52095362  0.40778279    -0.34900
N436        N  0.86776928  0.52890690  0.41604880    -0.29100
C437        C  0.86072959  0.51503444  0.43679463    -0.05200
C438        C  0.87957536  0.49790574  0.44200772     0.07000
C439        C  0.89779664  0.50220224  0.42333071     0.00800
H440        H  0.84348167  0.51763282  0.44763862     0.08500
H441        H  0.91531371  0.49219830  0.42093128     0.07500
N442        N  0.83787450  0.59353046  0.38402538    -0.36300
N443        N  0.85084780  0.60621045  0.36638566    -0.28500
C444        C  0.83845817  0.62743972  0.36047586    -0.03700
C445        C  0.81658611  0.62830514  0.37516710     0.04900
C446        C  0.81692531  0.60641277  0.38987555     0.03000
H447        H  0.84511128  0.64124965  0.34660935     0.08100
H448        H  0.80298716  0.60012087  0.40378647     0.06900
N449        N  0.87110856  0.53175265  0.08099473    -0.27500
N450        N  0.89219602  0.52245703  0.09058771    -0.35300
C451        C  0.89937318  0.50283791  0.07575399     0.00900
C452        C  0.88166378  0.49941009  0.05626516     0.06900
C453        C  0.86398735  0.51799372  0.06020335    -0.06200
H454        H  0.91585231  0.49148834  0.07934091     0.07600
H455        H  0.84731931  0.52144161  0.04866266     0.08800
Cu456      Cu  0.90909220  0.53602311  0.12446900     0.44200
Cu457      Cu  0.85331865  0.56306252  0.09623273     0.42000
Cu458      Cu  0.88186056  0.59229524  0.15295305     0.43900
N459        N  0.92200487  0.55283948  0.15866758    -0.34900
N460        N  0.91280383  0.57396975  0.16830178    -0.29100
C461        C  0.92615499  0.58059773  0.18955434    -0.05200
C462        C  0.94430164  0.56253072  0.19374335     0.07000
C463        C  0.94110727  0.54515925  0.17391887     0.00800
H464        H  0.92269418  0.59716900  0.20125006     0.08500
H465        H  0.95227081  0.52853782  0.17040897     0.07500
N466        N  0.84962552  0.60552175  0.13502382    -0.36300
N467        N  0.83928026  0.59487351  0.11432446    -0.28500
C468        C  0.81871486  0.60789581  0.10750095    -0.03700
C469        C  0.81582665  0.62777251  0.12479053     0.04900
C470        C  0.83586472  0.62556881  0.14200013     0.03000
H471        H  0.80690764  0.60314544  0.09102558     0.04900
H472        H  0.84022619  0.63749374  0.15850366     0.06900
N473        N  0.86956863  0.36079456  0.08455892    -0.27500
N474        N  0.89148242  0.36918871  0.09297567    -0.35300
C475        C  0.89924120  0.38780242  0.07710477     0.00900
C476        C  0.88114409  0.39146200  0.05808917     0.06900
C477        C  0.86254581  0.37417293  0.06347904    -0.06200
H478        H  0.91654852  0.39814919  0.07949953     0.07600
H479        H  0.84543229  0.37113903  0.05254093     0.08800
Cu480      Cu  0.90951348  0.35523077  0.12593250     0.44200
Cu481      Cu  0.85109714  0.33016736  0.10049439     0.42000
Cu482      Cu  0.88391185  0.29753587  0.15198990     0.43900
N483        N  0.92378104  0.33690882  0.15856161    -0.34900
N484        N  0.91508738  0.31521417  0.16723793    -0.29100
C485        C  0.92891548  0.30771553  0.18780581    -0.05200
C486        C  0.94689172  0.32577445  0.19253125     0.07000
C487        C  0.94310505  0.34406618  0.17374811     0.00800
H488        H  0.92575542  0.29065794  0.19880581     0.08500
H489        H  0.95384715  0.36108825  0.17103424     0.07500
N490        N  0.85081543  0.28491617  0.13569749    -0.36300
N491        N  0.83864173  0.29686250  0.11694252    -0.28500
C492        C  0.81797339  0.28372347  0.11067444    -0.03700
C493        C  0.81701578  0.26248789  0.12637117     0.04900
C494        C  0.83820759  0.26396364  0.14200441     0.03000
H495        H  0.80461482  0.28940220  0.09588204     0.08100
H496        H  0.84429881  0.25071255  0.15672360     0.06900
C497        C  0.21611484  0.19829226  0.13066663    -0.11000
C498        C  0.24068366  0.20335532  0.12218932     0.06100
C499        C  0.24671737  0.22786651  0.11415871    -0.09800
C500        C  0.22860281  0.24684593  0.11465508    -0.11400
C501        C  0.20412640  0.24176998  0.12338464    -0.01200
C502        C  0.19809211  0.21728940  0.13136223    -0.10300
C503        C  0.25994134  0.18317958  0.12199714     0.06100
H504        H  0.26556640  0.23250363  0.10791372     0.08100
H505        H  0.23391727  0.26557143  0.10862391     0.11500
H506        H  0.17931809  0.21264466  0.13780336     0.11800
H507        H  0.21069295  0.17953198  0.13649519     0.08100
C508        C  0.26068833  0.16522328  0.14214979    -0.11000
C509        C  0.27888644  0.14636548  0.14216865    -0.10300
C510        C  0.29690000  0.14509313  0.12213152    -0.01200
C511        C  0.29607009  0.16293923  0.10187023    -0.11400
C512        C  0.27777971  0.18173387  0.10178107    -0.09800
H513        H  0.24749399  0.16601995  0.15824986     0.08100
H514        H  0.27908727  0.13313106  0.15822632     0.11800
H515        H  0.30941213  0.16234733  0.08591601     0.11500
H516        H  0.27745391  0.19498034  0.08571053     0.08100
C517        C  0.77763084  0.20680009  0.14752460    -0.11000
C518        C  0.76082948  0.20437304  0.12647333     0.06100
C519        C  0.76272445  0.22121326  0.10537596    -0.09800
C520        C  0.78087701  0.24009789  0.10538311    -0.11400
C521        C  0.79768582  0.24250919  0.12641273    -0.01200
C522        C  0.79588017  0.22560837  0.14746649    -0.10300
C523        C  0.74135689  0.18443107  0.12649114     0.06100
H524        H  0.75039102  0.21958840  0.08861968     0.08100
H525        H  0.78190209  0.25255099  0.08869106     0.11500
H526        H  0.80830272  0.22706128  0.16414449     0.11800
H527        H  0.77643110  0.19440959  0.16427790     0.08100
C528        C  0.74665976  0.16038425  0.13636778    -0.11000
C529        C  0.72835657  0.14161059  0.13608960    -0.10300
C530        C  0.70435694  0.14642192  0.12583676    -0.01200
C531        C  0.69904941  0.17050073  0.11608003    -0.11400
C532        C  0.71729095  0.18927639  0.11646790    -0.09800
H533        H  0.76511745  0.15591070  0.14388863     0.08100
H534        H  0.73321062  0.12325321  0.14357068     0.11800
H535        H  0.68070444  0.17506132  0.10838727     0.11500
H536        H  0.71240936  0.20772368  0.10919541     0.08100
C537        C  0.75562563  0.22919323  0.38375381    -0.11000
C538        C  0.75863528  0.20640977  0.37029096     0.06100
C539        C  0.78164438  0.20143428  0.35786504    -0.09800
C540        C  0.80127620  0.21876967  0.35911465    -0.11400
C541        C  0.79834464  0.24139901  0.37290477    -0.01200
C542        C  0.77526218  0.24643460  0.38512038    -0.10300
C543        C  0.73807024  0.18766159  0.36985710     0.06100
H544        H  0.78468761  0.18388705  0.34766179     0.08100
H545        H  0.81885909  0.21420427  0.34964779     0.11500
H546        H  0.77215326  0.26383698  0.39552418     0.11800
H547        H  0.73798354  0.23380878  0.39310704     0.08100
C548        C  0.73322006  0.17340872  0.34725555    -0.11000
C549        C  0.71438097  0.15518631  0.34729337    -0.10300
C550        C  0.69987642  0.15103874  0.36984165    -0.01200
C551        C  0.70442114  0.16554744  0.39227000    -0.11400
C552        C  0.72339205  0.18356626  0.39232580    -0.09800
H553        H  0.74391000  0.17642023  0.32950075     0.08100
H554        H  0.71105542  0.14448966  0.32961096     0.11800
H555        H  0.69375882  0.16255699  0.41003923     0.11500
H556        H  0.72693303  0.19390083  0.41019859     0.08100
C557        C  0.26366576  0.16903479  0.35594388    -0.11000
C558        C  0.26210492  0.18615692  0.37681401     0.06100
C559        C  0.27970551  0.18439189  0.39722542    -0.09800
C560        C  0.29847141  0.16603931  0.39667740    -0.11400
C561        C  0.30012213  0.14900258  0.37568504    -0.01200
C562        C  0.28243603  0.15075726  0.35535337    -0.10300
C563        C  0.24223549  0.20577484  0.37710508     0.06100
H564        H  0.27923483  0.19744531  0.41346288     0.08100
H565        H  0.31162007  0.16530550  0.41277627     0.11500
H566        H  0.28299782  0.13808535  0.33883562     0.11800
H567        H  0.25016752  0.16954927  0.34011448     0.08100
C568        C  0.23032796  0.21272510  0.40062121    -0.11000
C569        C  0.21144648  0.23097232  0.40065837    -0.10300
C570        C  0.20381300  0.24225071  0.37714779    -0.01200
C571        C  0.21561806  0.23538994  0.35368885    -0.11400
C572        C  0.23480844  0.21754886  0.35369384    -0.09800
H573        H  0.23531100  0.20378837  0.41893352     0.08100
H574        H  0.20243244  0.23589455  0.41896448     0.11800
H575        H  0.21025877  0.24413679  0.33538014     0.11500
H576        H  0.24394359  0.21309445  0.33533594     0.08100
C577        C  0.23677624  0.66743084  0.10578405    -0.11000
C578        C  0.23843278  0.68447272  0.12672508     0.06100
C579        C  0.22040482  0.68311128  0.14680303    -0.09800
C580        C  0.20108710  0.66539130  0.14578686    -0.11400
C581        C  0.19938894  0.64844239  0.12475928    -0.01200
C582        C  0.21757880  0.64962311  0.10485640    -0.10300
C583        C  0.25853763  0.70388685  0.12726158     0.06100
H584        H  0.22131928  0.69559398  0.16349535     0.08100
H585        H  0.18765335  0.66494043  0.16165015     0.11500
H586        H  0.21687572  0.63708962  0.08822756     0.11800
H587        H  0.24999184  0.66817581  0.08970746     0.08100
C588        C  0.28261944  0.69868136  0.11732131    -0.11000
C589        C  0.30114921  0.71724098  0.11687828    -0.10300
C590        C  0.29616224  0.74134662  0.12668921    -0.01200
C591        C  0.27228020  0.74646542  0.13703110    -0.11400
C592        C  0.25365684  0.72802402  0.13717578    -0.09800
H593        H  0.28726059  0.68018529  0.11002468     0.08100
H594        H  0.31946822  0.71258757  0.10912044     0.11800
H595        H  0.26772427  0.76492381  0.14447631     0.11500
H596        H  0.23524272  0.73291729  0.14451749     0.08100
C597        C  0.72740645  0.71200657  0.10055560    -0.11000
C598        C  0.73802856  0.70380011  0.12426282     0.06100
C599        C  0.72966315  0.71451349  0.14784688    -0.09800
C600        C  0.71136077  0.73324321  0.14771797    -0.11400
C601        C  0.70084587  0.74147963  0.12403526    -0.01200
C602        C  0.70889470  0.73057889  0.10045963    -0.10300
C603        C  0.75788099  0.68427627  0.12443287     0.06100
H604        H  0.73711704  0.70825786  0.16645855     0.08100
H605        H  0.70523086  0.74106061  0.16621185     0.11500
H606        H  0.70127606  0.73676929  0.08189900     0.11800
H607        H  0.73371377  0.70438175  0.08203559     0.08100
C608        C  0.75653718  0.66361713  0.10742639    -0.11000
C609        C  0.77526824  0.64528257  0.10758333    -0.10300
C610        C  0.79581453  0.64716338  0.12475794    -0.01200
C611        C  0.79708489  0.66783821  0.14181063    -0.11400
C612        C  0.77836340  0.68617142  0.14162801    -0.09800
H613        H  0.74079975  0.66142431  0.09421830     0.08100
H614        H  0.77343011  0.62959400  0.09430777     0.11800
H615        H  0.81263420  0.67012834  0.15518638     0.11500
H616        H  0.78014512  0.70206773  0.15469924     0.08100
C617        C  0.27554203  0.70637899  0.39688245    -0.11000
C618        C  0.26060384  0.70232672  0.37459010     0.06100
C619        C  0.26443454  0.71753644  0.35243568    -0.09800
C620        C  0.28255363  0.73647555  0.35266847    -0.11400
C621        C  0.29744968  0.74048235  0.37495648    -0.01200
C622        C  0.29382121  0.72515972  0.39701732    -0.10300
C623        C  0.24096923  0.68249736  0.37452012     0.06100
H624        H  0.25362003  0.71463060  0.33475259     0.08100
H625        H  0.28511268  0.74771850  0.33522523     0.11500
H626        H  0.30477790  0.72794249  0.41461689     0.11800
H627        H  0.27281936  0.69533506  0.41444457     0.08100
C628        C  0.24497961  0.65947816  0.38731859    -0.11000
C629        C  0.22643056  0.64094310  0.38733722    -0.10300
C630        C  0.20349660  0.64490969  0.37439980    -0.01200
C631        C  0.19949433  0.66789812  0.36159782    -0.11400
C632        C  0.21795741  0.68648403  0.36172984    -0.09800
H633        H  0.26262452  0.65559861  0.39700646     0.08100
H634        H  0.23028154  0.62337740  0.39716465     0.11800
H635        H  0.18194937  0.67176923  0.35174646     0.11500
H636        H  0.21401159  0.70415920  0.35213092     0.08100
C637        C  0.74642092  0.73100185  0.36932465    -0.11000
C638        C  0.74047225  0.70604585  0.37570460     0.06100
C639        C  0.71560158  0.70009469  0.38242727    -0.09800
C640        C  0.69714517  0.71869360  0.38299861    -0.11400
C641        C  0.70309847  0.74360887  0.37662885    -0.01200
C642        C  0.72789446  0.74958053  0.36969453    -0.10300
C643        C  0.76010742  0.68627774  0.37556157     0.06100
H644        H  0.71033980  0.68096631  0.38698633     0.08100
H645        H  0.67812349  0.71346723  0.38804007     0.11500
H646        H  0.73307450  0.76868519  0.36494919     0.11800
H647        H  0.76548151  0.73623345  0.36442514     0.08100
C648        C  0.76067894  0.66794118  0.39531003    -0.11000
C649        C  0.77897324  0.64917851  0.39516517    -0.10300
C650        C  0.79718639  0.64829635  0.37527526    -0.01200
C651        C  0.79667086  0.66671672  0.35555484    -0.11400
C652        C  0.77834182  0.68549556  0.35570314    -0.09800
H653        H  0.74714288  0.66828638  0.41112285     0.08100
H654        H  0.77892166  0.63556251  0.41086542     0.11800
H655        H  0.81020943  0.66653405  0.33977527     0.11500
H656        H  0.77819337  0.69917487  0.34002552     0.08100
O657        O  0.47274067  0.80636067  0.52872426    -0.73100
O658        O  0.52618806  0.80620324  0.97353549    -0.74100
O659        O  0.52634496  0.80762371  0.52869350    -0.62700
O660        O  0.47276653  0.80527157  0.97349385    -0.71100
O661        O  0.47245105  0.84694134  0.97231098    -0.70700
O662        O  0.52525785  0.84929299  0.52823769    -0.61900
O663        O  0.52530348  0.84785854  0.97221507    -0.74400
O664        O  0.47220405  0.84803619  0.52827069    -0.73200
Cu665      Cu  0.49954058  0.80491842  0.50119050     1.04600
Cu666      Cu  0.49876694  0.84951059  0.00025514     1.04300
C667        C  0.46403366  0.82716254  0.53715788     0.93100
C668        C  0.53399373  0.82692459  0.96402194     0.92200
C669        C  0.53425660  0.82877329  0.53708394     0.84400
C670        C  0.46438550  0.82582174  0.96404537     0.90600
N671        N  0.58402116  0.81463358  0.91736810    -0.27500
N672        N  0.57531412  0.83615643  0.90821607    -0.35300
C673        C  0.55649466  0.84410344  0.92370144     0.00900
C674        C  0.55298953  0.82653475  0.94325407     0.06900
C675        C  0.57063455  0.80804908  0.93861180    -0.06200
H676        H  0.54584698  0.86113606  0.92062640     0.07600
H677        H  0.57381301  0.79127909  0.95008145     0.08800
Cu678      Cu  0.58897171  0.85345668  0.87476973     0.44200
Cu679      Cu  0.61488259  0.79616663  0.90180937     0.42000
Cu680      Cu  0.64860065  0.83040527  0.85163572     0.43900
N681        N  0.60727570  0.86785014  0.84225612    -0.34900
N682        N  0.62971465  0.86018161  0.83464336    -0.29100
C683        C  0.63714982  0.87401333  0.81404838    -0.05200
C684        C  0.61832819  0.89094072  0.80822521     0.07000
C685        C  0.59960719  0.88649037  0.82638498     0.00800
H686        H  0.65481491  0.87169856  0.80388836     0.08500
H687        H  0.58201964  0.89645818  0.82834776     0.07500
N688        N  0.66144122  0.79741819  0.86831178    -0.36300
N689        N  0.64870195  0.78439351  0.88586933    -0.28500
C690        C  0.66151918  0.76336980  0.89161352    -0.03700
C691        C  0.68346997  0.76321806  0.87706622     0.04900
C692        C  0.68278660  0.78515386  0.86256649     0.03000
H693        H  0.65538345  0.74938543  0.90556335     0.08100
H694        H  0.69645352  0.79147676  0.84836493     0.06900
N695        N  0.36900497  0.85925825  0.83401770    -0.27500
N696        N  0.39076341  0.86762576  0.84286923    -0.35300
C697        C  0.39860723  0.88656428  0.82748066     0.00900
C698        C  0.38070528  0.89052859  0.80833027     0.06900
C699        C  0.36213873  0.87301381  0.81312007    -0.06200
H700        H  0.41583573  0.89694193  0.83030962     0.07600
H701        H  0.34518136  0.87008746  0.80188992     0.08800
Cu702      Cu  0.40834034  0.85332747  0.87591337     0.44200
Cu703      Cu  0.35072159  0.82824147  0.84947177     0.42000
Cu704      Cu  0.38310272  0.79573277  0.90218986     0.43900
N705        N  0.42251701  0.83550807  0.90886002    -0.34900
N706        N  0.41407650  0.81377866  0.91770915    -0.29100
C707        C  0.42783755  0.80678366  0.93855373    -0.05200
C708        C  0.44544795  0.82525337  0.94326101     0.07000
C709        C  0.44152574  0.84320895  0.92417631     0.00800
H710        H  0.42483828  0.78983742  0.94978807     0.08500
H711        H  0.45195486  0.86041066  0.92137031     0.07500
N712        N  0.35019506  0.78314018  0.88518871    -0.36300
N713        N  0.33838332  0.79488331  0.86601243    -0.28500
C714        C  0.31792560  0.78158119  0.85933990    -0.03700
C715        C  0.31669003  0.76051264  0.87521544     0.04900
C716        C  0.33747695  0.76220798  0.89138892     0.03000
H717        H  0.30484480  0.78703404  0.84418160     0.08100
H718        H  0.34322690  0.74905509  0.90635833     0.06900
N719        N  0.62943433  0.85860613  0.66857863    -0.27500
N720        N  0.60905467  0.86897203  0.65850242    -0.35300
C721        C  0.60224434  0.88856494  0.67349277     0.00900
C722        C  0.61942096  0.89083571  0.69361005     0.06900
C723        C  0.63648558  0.87166987  0.68987543    -0.06200
H724        H  0.58627581  0.90056563  0.66970829     0.07600
H725        H  0.65255308  0.86724905  0.70197257     0.08800
Cu726      Cu  0.59189973  0.85673759  0.62430018     0.44200
Cu727      Cu  0.64612320  0.82661979  0.65368938     0.42000
Cu728      Cu  0.61849721  0.80090479  0.59504706     0.43900
N729        N  0.57784423  0.84000334  0.59063015    -0.34900
N730        N  0.58702147  0.81897136  0.58076986    -0.29100
C731        C  0.57285087  0.81180819  0.56034844    -0.05200
C732        C  0.55411416  0.82937418  0.55691443     0.07000
C733        C  0.55786287  0.84711315  0.57629705     0.00800
H734        H  0.57609965  0.79514427  0.54873222     0.08500
H735        H  0.54649092  0.86351363  0.58019429     0.07500
N736        N  0.64972492  0.78580937  0.61315302    -0.36300
N737        N  0.65933084  0.79481347  0.63506715    -0.28500
C738        C  0.67878751  0.78040936  0.64236277    -0.03700
C739        C  0.68175312  0.76154387  0.62399590     0.04900
C740        C  0.66303312  0.76560753  0.60568690     0.03000
H741        H  0.69016219  0.78373193  0.65955661     0.08100
H742        H  0.65905419  0.75448774  0.58846083     0.06900
N743        N  0.36785357  0.85982791  0.66676361    -0.27500
N744        N  0.38926287  0.86865858  0.65750630    -0.35300
C745        C  0.39728472  0.88734129  0.67310772     0.00900
C746        C  0.37986212  0.89063506  0.69286577     0.06900
C747        C  0.36137099  0.87301367  0.68819241    -0.06200
H748        H  0.41428561  0.89802101  0.67000709     0.07600
H749        H  0.34471926  0.86966794  0.69979619     0.08800
Cu750      Cu  0.40616953  0.85512165  0.62379899     0.44200
Cu751      Cu  0.34969137  0.82899570  0.65089681     0.42000
Cu752      Cu  0.38167037  0.79677784  0.59765437     0.43900
N753        N  0.42055553  0.83740460  0.59094867    -0.34900
N754        N  0.41246362  0.81550431  0.58217491    -0.29100
C755        C  0.42678062  0.80844258  0.56175849    -0.05200
C756        C  0.44439640  0.82699401  0.55727756     0.07000
C757        C  0.43986327  0.84512006  0.57601824     0.00800
H758        H  0.42431556  0.79125994  0.55077643     0.08500
H759        H  0.45022221  0.86233165  0.57902680     0.07500
N760        N  0.34915688  0.78364724  0.61541349    -0.36300
N761        N  0.33734016  0.79568403  0.63440069    -0.28500
C762        C  0.31686221  0.78256212  0.64131791    -0.03700
C763        C  0.31566651  0.76113582  0.62601528     0.04900
C764        C  0.33651040  0.76247290  0.60981258     0.03000
H765        H  0.30400705  0.78813559  0.65664314     0.08100
H766        H  0.34194989  0.74925489  0.59477142     0.06900
O767        O  0.63962994  0.91807767  0.77895585    -0.73100
O768        O  0.64105362  0.97092171  0.72297463    -0.74100
O769        O  0.64019031  0.97151002  0.77848738    -0.62700
O770        O  0.64040030  0.91750916  0.72366055    -0.71100
O771        O  0.59873741  0.91866743  0.72260144    -0.70700
O772        O  0.59850704  0.97144692  0.77859371    -0.61900
O773        O  0.59938206  0.97139540  0.72244700    -0.74400
O774        O  0.59795212  0.91860169  0.77858926    -0.73200
Cu775      Cu  0.64178428  0.94450978  0.75106332     1.04600
Cu776      Cu  0.59718604  0.94506365  0.75054459     1.04300
C777        C  0.61862020  0.91007689  0.78760645     0.93100
C778        C  0.62041604  0.97921646  0.71365327     0.92200
C779        C  0.61934313  0.97970660  0.78740768     0.84400
C780        C  0.61954602  0.90983080  0.71431656     0.90600
O781        O  0.40209318  0.91734881  0.77856457    -0.73100
O782        O  0.40282593  0.97027790  0.72227970    -0.74100
O783        O  0.40330132  0.97028053  0.77853549    -0.62700
O784        O  0.40162970  0.91738005  0.72233147    -0.71100
O785        O  0.35996289  0.91779111  0.72326039    -0.70700
O786        O  0.36164950  0.97168448  0.77820271    -0.61900
O787        O  0.36116831  0.97117918  0.72278720    -0.74400
O788        O  0.36042626  0.91815042  0.77866241    -0.73200
Cu789      Cu  0.40394264  0.94377810  0.75042578     1.04600
Cu790      Cu  0.35936609  0.94473017  0.75076263     1.04300
C791        C  0.38111389  0.90952684  0.78751631     0.93100
C792        C  0.38206279  0.97890012  0.71356262     0.92200
C793        C  0.38268265  0.97930456  0.78716433     0.84400
C794        C  0.38052857  0.90939501  0.71387747     0.90600
O795        O  0.52858572  0.04416567  0.97351816    -0.73100
O796        O  0.47515344  0.04368958  0.52890931    -0.74100
O797        O  0.47574072  0.04290568  0.97291980    -0.62700
O798        O  0.52771208  0.04488773  0.52976884    -0.71100
O799        O  0.52726242  0.08655812  0.52893942    -0.70700
O800        O  0.47458619  0.08457132  0.97273028    -0.61900
O801        O  0.47404445  0.08535793  0.52806891    -0.74400
O802        O  0.52804716  0.08583684  0.97325902    -0.73200
Cu803      Cu  0.50187224  0.04246025  0.50126699     1.04600
Cu804      Cu  0.50098333  0.08705072  0.00068881     1.04300
C805        C  0.53652979  0.06505141  0.96447771     0.93100
C806        C  0.46640426  0.06447150  0.53736935     0.92200
C807        C  0.46689586  0.06346720  0.96399808     0.84400
C808        C  0.53531151  0.06597005  0.53861886     0.90600
N809        N  0.37307069  0.03138620  0.83206578    -0.27500
N810        N  0.39310401  0.02083568  0.84270303    -0.35300
C811        C  0.39989895  0.00091191  0.82810976     0.00900
C812        C  0.38306411  0.99862438  0.80764572     0.06900
C813        C  0.36625594  0.01812957  0.81081030    -0.06200
H814        H  0.41559252  0.98870665  0.83240352     0.07600
H815        H  0.35046177  0.02260754  0.79835203     0.08800
Cu816      Cu  0.40985163  0.03356253  0.87700292     0.44200
Cu817      Cu  0.35626457  0.06386832  0.84612225     0.42000
Cu818      Cu  0.38539188  0.09226498  0.90230777     0.43900
N819        N  0.42408630  0.05163558  0.90988185    -0.34900
N820        N  0.41584527  0.07365942  0.91816798    -0.29100
C821        C  0.42989537  0.08122428  0.93853141    -0.05200
C822        C  0.44757480  0.06292619  0.94357271     0.07000
C823        C  0.44333341  0.04434927  0.92517511     0.00800
H824        H  0.42720833  0.09862373  0.94908152     0.08500
H825        H  0.45384633  0.02714921  0.92265413     0.07500
N826        N  0.35357129  0.10656097  0.88461634    -0.36300
N827        N  0.34294219  0.09629556  0.86387601    -0.28500
C828        C  0.32255429  0.10977692  0.85736036    -0.03700
C829        C  0.32008456  0.12951047  0.87496500     0.04900
C830        C  0.34020988  0.12675983  0.89196243     0.03000
H831        H  0.31030252  0.10516926  0.84119892     0.08100
H832        H  0.34492867  0.13845089  0.90853988     0.06900
N833        N  0.58527276  0.07684785  0.91616692    -0.27500
N834        N  0.57760703  0.05437774  0.90865578    -0.35300
C835        C  0.55944213  0.04653878  0.92502776     0.00900
C836        C  0.55527760  0.06514341  0.94341372     0.06900
C837        C  0.57185170  0.08414500  0.93714581    -0.06200
H838        H  0.54961710  0.02885848  0.92331391     0.07600
H839        H  0.57428910  0.10178235  0.94732072     0.08800
Cu840      Cu  0.59156970  0.03592461  0.87583873     0.44200
Cu841      Cu  0.61483805  0.09569628  0.89877081     0.42000
Cu842      Cu  0.64796085  0.06220743  0.84759659     0.43900
N843        N  0.60908622  0.02161137  0.84262426    -0.34900
N844        N  0.63045705  0.03049837  0.83329969    -0.29100
C845        C  0.63746570  0.01680674  0.81244283    -0.05200
C846        C  0.61939764  0.99874325  0.80812102     0.07000
C847        C  0.60161506  0.00231386  0.82751302     0.00800
H848        H  0.65413449  0.02020248  0.80087948     0.08500
H849        H  0.58472765  0.99146890  0.83065590     0.07500
N850        N  0.65929573  0.09645516  0.86231786    -0.36300
N851        N  0.64721150  0.10867631  0.88097257    -0.28500
C852        C  0.65960912  0.12998558  0.88639373    -0.03700
C853        C  0.68040674  0.13135243  0.87020141     0.04900
C854        C  0.67955615  0.10977805  0.85514634     0.03000
H855        H  0.65382444  0.14345665  0.90104559     0.08100
H856        H  0.69293630  0.10386055  0.84045717     0.06900
N857        N  0.58388722  0.07761920  0.58705452    -0.27500
N858        N  0.57555806  0.05556027  0.59508771    -0.35300
C859        C  0.55692220  0.04808421  0.57913370     0.00900
C860        C  0.55324026  0.06647152  0.56040488     0.06900
C861        C  0.57046915  0.08502716  0.56612543    -0.06200
H862        H  0.54690555  0.03051865  0.58095071     0.07600
H863        H  0.57377868  0.10210563  0.55521020     0.08800
Cu864      Cu  0.59059234  0.03643008  0.62688564     0.44200
Cu865      Cu  0.61535787  0.09478908  0.60252412     0.42000
Cu866      Cu  0.65168310  0.05766792  0.64853726     0.43900
N867        N  0.60991222  0.02083066  0.65825841    -0.34900
N868        N  0.63276223  0.02776728  0.66528529    -0.29100
C869        C  0.64015174  0.01385366  0.68587145    -0.05200
C870        C  0.62084756  0.99770444  0.69235560     0.07000
C871        C  0.60197240  0.00261151  0.67449743     0.00800
H872        H  0.65794388  0.01588332  0.69584264     0.08500
H873        H  0.58387080  0.99351099  0.67327656     0.07500
N874        N  0.66355824  0.09164796  0.63325751    -0.36300
N875        N  0.65000352  0.10540648  0.61704150    -0.28500
C876        C  0.66241351  0.12672896  0.61173414    -0.03700
C877        C  0.68492602  0.12652335  0.62533492     0.04900
C878        C  0.68496993  0.10388773  0.63874202     0.03000
H879        H  0.65544275  0.14120835  0.59881258     0.08100
H880        H  0.69918295  0.09696079  0.65200980     0.06900
N881        N  0.41710191  0.07572197  0.58493896    -0.27500
N882        N  0.42546472  0.05372164  0.59313507    -0.35300
C883        C  0.44404398  0.04611471  0.57716402     0.00900
C884        C  0.44766828  0.06440096  0.55833672     0.06900
C885        C  0.43040944  0.08295523  0.56390155    -0.06200
H886        H  0.45439459  0.02877722  0.57936008     0.07600
H887        H  0.42733348  0.10016252  0.55312681     0.08800
Cu888      Cu  0.41144441  0.03534493  0.62588600     0.44200
Cu889      Cu  0.38640496  0.09373223  0.60081542     0.42000
Cu890      Cu  0.35168274  0.05849104  0.64923593     0.43900
N891        N  0.39293283  0.02066292  0.65824593    -0.34900
N892        N  0.37050030  0.02833937  0.66590902    -0.29100
C893        C  0.36318636  0.01458368  0.68663372    -0.05200
C894        C  0.38209474  0.99775507  0.69256557     0.07000
C895        C  0.40070414  0.00213433  0.67423575     0.00800
H896        H  0.34561526  0.01700924  0.69694073     0.08500
H897        H  0.41838235  0.99231119  0.67236940     0.07500
N898        N  0.33899014  0.09171739  0.63261886    -0.36300
N899        N  0.35197596  0.10474025  0.61528459    -0.28500
C900        C  0.33900372  0.12539631  0.60868090    -0.03700
C901        C  0.31670219  0.12555910  0.62262090     0.04900
C902        C  0.31739342  0.10385199  0.63762787     0.03000
H903        H  0.34560971  0.13937119  0.59496701     0.08100
H904        H  0.30330404  0.09725387  0.65121669     0.06900
O905        O  0.97184800  0.58305972  0.72327929    -0.73100
O906        O  0.02636731  0.58244034  0.77754771    -0.74100
O907        O  0.02525760  0.58249378  0.72238025    -0.62700
O908        O  0.97291983  0.58323309  0.77851307    -0.71100
O909        O  0.97246302  0.54154980  0.77880718    -0.70700
O910        O  0.02488226  0.54081123  0.72211859    -0.61900
O911        O  0.02541238  0.54077132  0.77815341    -0.74400
O912        O  0.97194693  0.54138042  0.72272929    -0.73200
Cu913      Cu  0.99910920  0.58424317  0.75043629     1.04600
Cu914      Cu  0.99864546  0.53963864  0.75046197     1.04300
C915        C  0.96353396  0.56230757  0.71427124     0.93100
C916        C  0.03434478  0.56152325  0.78648137     0.92200
C917        C  0.03326064  0.56164421  0.71335039     0.84400
C918        C  0.96452325  0.56256435  0.78757435     0.90600
O919        O  0.02729139  0.30369117  0.72158178    -0.73100
O920        O  0.97442640  0.30519616  0.77753095    -0.74100
O921        O  0.97386442  0.30465719  0.72220063    -0.62700
O922        O  0.02801406  0.30445705  0.77690332    -0.71100
O923        O  0.02794712  0.34614695  0.77680849    -0.70700
O924        O  0.97480109  0.34633211  0.72147211    -0.61900
O925        O  0.97504594  0.34686793  0.77743081    -0.74400
O926        O  0.02753335  0.34536778  0.72084331    -0.73200
Cu927      Cu  0.00087699  0.30302777  0.74959832     1.04600
Cu928      Cu  0.00136649  0.34763192  0.74913768     1.04300
C929        C  0.03553539  0.32431934  0.71223510     0.93100
C930        C  0.96643782  0.32617690  0.78630573     0.92200
C931        C  0.96604123  0.32556113  0.71306466     0.84400
C932        C  0.03636964  0.32534302  0.78553061     0.90600
O933        O  0.09615036  0.41769835  0.97214708    -0.73100
O934        O  0.09682990  0.46986191  0.52880465    -0.74100
O935        O  0.09580191  0.47063330  0.97286949    -0.62700
O936        O  0.09738424  0.41706769  0.52815806    -0.71100
O937        O  0.13906569  0.41746611  0.52725834    -0.70700
O938        O  0.13749064  0.47097362  0.97238764    -0.61900
O939        O  0.13849154  0.47086364  0.52751213    -0.74400
O940        O  0.13783876  0.41750402  0.97204872    -0.73200
Cu941      Cu  0.09506162  0.44379284  0.00051529     1.04600
Cu942      Cu  0.13967144  0.44420001  0.49974436     1.04300
C943        C  0.11693602  0.40932564  0.96329085     0.93100
C944        C  0.11770639  0.47859685  0.53699892     0.92200
C945        C  0.11649742  0.47922642  0.96399632     0.84400
C946        C  0.11849686  0.40901958  0.53652350     0.90600
N947        N  0.08594987  0.57228139  0.83160171    -0.27500
N948        N  0.07643727  0.55139260  0.84142646    -0.35300
C949        C  0.05699484  0.54401714  0.82650883     0.00900
C950        C  0.05387933  0.56137768  0.80668077     0.06900
C951        C  0.07245647  0.57908079  0.81050643    -0.06200
H952        H  0.04552545  0.52767212  0.83030278     0.07600
H953        H  0.07605257  0.59555466  0.79871371     0.08800
Cu954      Cu  0.08931439  0.53479407  0.87554696     0.44200
Cu955      Cu  0.11733024  0.59008292  0.84679399     0.42000
Cu956      Cu  0.14756984  0.55938076  0.90149559     0.43900
N957        N  0.10629849  0.52146974  0.90925814    -0.34900
N958        N  0.12820591  0.52964202  0.91790203    -0.29100
C959        C  0.13502926  0.51600489  0.93884975    -0.05200
C960        C  0.11633632  0.49871875  0.94381746     0.07000
C961        C  0.09832595  0.50273639  0.92482657     0.00800
H962        H  0.15228978  0.51854051  0.94967628     0.08500
H963        H  0.08117975  0.49224063  0.92193025     0.07500
N964        N  0.16129957  0.59153360  0.88389036    -0.36300
N965        N  0.15003614  0.60297348  0.86418230    -0.28500
C966        C  0.16322121  0.62355654  0.85774890    -0.03700
C967        C  0.18385722  0.62521265  0.87420410     0.04900
C968        C  0.18197027  0.60450279  0.89051880     0.03000
H969        H  0.15815658  0.63620997  0.84206384     0.08100
H970        H  0.19441058  0.59935898  0.90636340     0.06900
N971        N  0.12768819  0.35753267  0.91854886    -0.27500
N972        N  0.10714435  0.36727355  0.90818317    -0.35300
C973        C  0.09981060  0.38699328  0.92277436     0.00900
C974        C  0.11690334  0.39000247  0.94289393     0.06900
C975        C  0.13435692  0.37112885  0.93958317    -0.06200
H976        H  0.08364235  0.39861965  0.91865215     0.07600
H977        H  0.15049284  0.36729319  0.95179472     0.08800
Cu978      Cu  0.09104615  0.35396275  0.87393344     0.44200
Cu979      Cu  0.14527029  0.32563669  0.90447224     0.42000
Cu980      Cu  0.11945817  0.29780582  0.84608260     0.43900
N981        N  0.07843128  0.33639464  0.84019534    -0.34900
N982        N  0.08795970  0.31530452  0.83081230    -0.29100
C983        C  0.07434714  0.30797069  0.80999366    -0.05200
C984        C  0.05572578  0.32555690  0.80586249     0.07000
C985        C  0.05890484  0.34337241  0.82521246     0.00800
H986        H  0.07797422  0.29128810  0.79852879     0.08500
H987        H  0.04746073  0.35982624  0.82860226     0.07500
N988        N  0.15088100  0.28400703  0.86517197    -0.36300
N989        N  0.15972134  0.29362603  0.88716774    -0.28500
C990        C  0.17954858  0.27999739  0.89511659    -0.03700
C991        C  0.18362482  0.26115770  0.87698837     0.04900
C992        C  0.16516711  0.26430512  0.85821900     0.03000
H993        H  0.19058589  0.28394994  0.91240874     0.08100
H994        H  0.16217725  0.25296742  0.84092432     0.06900
N995        N  0.08539489  0.31248316  0.66519825    -0.27500
N996        N  0.07691603  0.33431698  0.65668437    -0.35300
C997        C  0.05803405  0.34194711  0.67222639     0.00900
C998        C  0.05423877  0.32385197  0.69118108     0.06900
C999        C  0.07177388  0.30534992  0.68610107    -0.06200
H1000       H  0.04768582  0.35924961  0.66973094     0.07600
H1001       H  0.07488494  0.28834050  0.69719919     0.08800
Cu1002     Cu  0.09126149  0.35247623  0.62416530     0.44200
Cu1003     Cu  0.11659302  0.29486179  0.64934941     0.42000
Cu1004     Cu  0.15114578  0.33011658  0.60016200     0.43900
N1005       N  0.10929509  0.36717292  0.59174238    -0.34900
N1006       N  0.13174209  0.35986685  0.58376201    -0.29100
C1007       C  0.13850898  0.37366585  0.56288626    -0.05200
C1008       C  0.11919268  0.39010498  0.55728807     0.07000
C1009       C  0.10095562  0.38548884  0.57587805     0.00800
H1010       H  0.15596558  0.37154262  0.55229556     0.08500
H1011       H  0.08315118  0.39502543  0.57803306     0.07500
N1012       N  0.16346446  0.29658793  0.61609627    -0.36300
N1013       N  0.15049903  0.28343296  0.63336642    -0.28500
C1014       C  0.16297795  0.26214232  0.63872955    -0.03700
C1015       C  0.18491341  0.26182335  0.62416046     0.04900
C1016       C  0.18458960  0.28404408  0.61007621     0.03000
H1017       H  0.15653353  0.24804579  0.65239458     0.08100
H1018       H  0.19832755  0.29040144  0.59596960     0.06900
N1019       N  0.12735944  0.53087836  0.58146443    -0.27500
N1020       N  0.10715739  0.52054155  0.59193270    -0.35300
C1021       C  0.10058583  0.50039777  0.57764923     0.00900
C1022       C  0.11774214  0.49774228  0.55756069     0.06900
C1023       C  0.13453212  0.51726042  0.56058439    -0.06200
H1024       H  0.08466632  0.48844061  0.58176007     0.07600
H1025       H  0.15036681  0.52165098  0.54814403     0.08800
Cu1026     Cu  0.08972428  0.53393444  0.62541550     0.44200
Cu1027     Cu  0.14336957  0.56376206  0.59513209     0.42000
Cu1028     Cu  0.11214683  0.59381589  0.64957614     0.43900
N1029       N  0.07526830  0.55168879  0.65822294    -0.34900
N1030       N  0.08269336  0.57409199  0.66620656    -0.29100
C1031       C  0.06888341  0.58097718  0.68701938    -0.05200
C1032       C  0.05226140  0.56183794  0.69261195     0.07000
C1033       C  0.05682749  0.54350457  0.67407279     0.00800
H1034       H  0.07101565  0.59849207  0.69749370     0.08500
H1035       H  0.04709114  0.52582446  0.67185807     0.07500
N1036       N  0.14448133  0.60765415  0.63229439    -0.36300
N1037       N  0.15584409  0.59662249  0.61240203    -0.28500
C1038       C  0.17675297  0.60948279  0.60646438    -0.03700
C1039       C  0.17885377  0.62962475  0.62354601     0.04900
C1040       C  0.15792622  0.62780456  0.63963440     0.03000
H1041       H  0.18971190  0.60404540  0.59119921     0.08100
H1042       H  0.15285305  0.63997442  0.65572431     0.06900
O1043       O  0.85977364  0.41723415  0.97253131    -0.73100
O1044       O  0.86040773  0.47166161  0.52735493    -0.74100
O1045       O  0.85940863  0.47074308  0.97206331    -0.62700
O1046       O  0.86032179  0.41813957  0.52804751    -0.71100
O1047       O  0.90199996  0.41826886  0.52786602    -0.70700
O1048       O  0.90108730  0.47079544  0.97129150    -0.61900
O1049       O  0.90208000  0.47116747  0.52730783    -0.74400
O1050       O  0.90142945  0.41795747  0.97160723    -0.73200
Cu1051     Cu  0.85852270  0.44441689  0.50003228     1.04600
Cu1052     Cu  0.90311338  0.44452156  0.49949759     1.04300
C1053       C  0.88058619  0.40935346  0.96316896     0.93100
C1054       C  0.88136636  0.47984768  0.53601974     0.92200
C1055       C  0.88006244  0.47896939  0.96279362     0.84400
C1056       C  0.88120589  0.41011854  0.53697675     0.90600
N1057       N  0.91564585  0.31489773  0.83228253    -0.27500
N1058       N  0.92354154  0.33699845  0.84071245    -0.35300
C1059       C  0.94260655  0.34470356  0.82536903     0.00900
C1060       C  0.94708048  0.32635764  0.80676137     0.06900
C1061       C  0.92972424  0.30773900  0.81175845    -0.06200
H1062       H  0.95283139  0.36205400  0.82797425     0.07600
H1063       H  0.92728768  0.29037852  0.80107667     0.08800
Cu1064     Cu  0.90889409  0.35488349  0.87363495     0.44200
Cu1065     Cu  0.88552266  0.29565306  0.84809273     0.42000
Cu1066     Cu  0.85452829  0.32558509  0.90278118     0.43900
N1067       N  0.89130166  0.36815413  0.90736587    -0.34900
N1068       N  0.87078685  0.35797983  0.91733875    -0.29100
C1069       C  0.86357429  0.37125123  0.93846894    -0.05200
C1070       C  0.88065735  0.39039571  0.94227418     0.07000
C1071       C  0.89802073  0.38786112  0.92228502     0.00800
H1072       H  0.84747231  0.36687737  0.95053600     0.08500
H1073       H  0.91416700  0.39965637  0.91866220     0.07500
N1074       N  0.84208289  0.29276221  0.88547007    -0.36300
N1075       N  0.85339641  0.28170348  0.86555585    -0.28500
C1076       C  0.83998347  0.26149865  0.85832082    -0.03700
C1077       C  0.81911069  0.25979176  0.87443401     0.04900
C1078       C  0.82120190  0.27991689  0.89148128     0.03000
H1079       H  0.84471772  0.24950411  0.84196606     0.08100
H1080       H  0.80838754  0.28515954  0.90696172     0.06900
N1081       N  0.91489280  0.57525915  0.83448497    -0.27500
N1082       N  0.92264397  0.55307964  0.84277625    -0.35300
C1083       C  0.94124582  0.54494337  0.82714034     0.00900
C1084       C  0.94562607  0.56309194  0.80839337     0.06900
C1085       C  0.92871516  0.58210559  0.81365247    -0.06200
H1086       H  0.95110968  0.52734905  0.82954486     0.07600
H1087       H  0.92625305  0.59936981  0.80280765     0.08800
Cu1088     Cu  0.90803171  0.53534606  0.87534920     0.44200
Cu1089     Cu  0.88449326  0.59400815  0.85052004     0.42000
Cu1090     Cu  0.84942606  0.55967152  0.90009538     0.43900
N1091       N  0.88989429  0.52095442  0.90778410    -0.34900
N1092       N  0.86776784  0.52890799  0.91605029    -0.29100
C1093       C  0.86072812  0.51503558  0.93679617    -0.05200
C1094       C  0.87957373  0.49790666  0.94200909     0.07000
C1095       C  0.89779496  0.50220304  0.92333203     0.00800
H1096       H  0.84348021  0.51763410  0.94764020     0.08500
H1097       H  0.91531191  0.49219890  0.92093252     0.07500
N1098       N  0.83787318  0.59353102  0.88402544    -0.36300
N1099       N  0.85084571  0.60620956  0.86638392    -0.28500
C1100       C  0.83845630  0.62743883  0.86047356    -0.03700
C1101       C  0.81658532  0.62830578  0.87516636     0.04900
C1102       C  0.81692479  0.60641433  0.88987623     0.03000
H1103       H  0.84510892  0.64124790  0.84660579     0.08100
H1104       H  0.80298716  0.60012369  0.90378846     0.06900
N1105       N  0.87110911  0.53175383  0.58099324    -0.27500
N1106       N  0.89219632  0.52245786  0.59058646    -0.35300
C1107       C  0.89937339  0.50283871  0.57575277     0.00900
C1108       C  0.88166416  0.49941120  0.55626370     0.06900
C1109       C  0.86398798  0.51799507  0.56020171    -0.06200
H1110       H  0.91585223  0.49148884  0.57933995     0.07600
H1111       H  0.84732001  0.52144314  0.54866089     0.08800
Cu1112     Cu  0.90909223  0.53602319  0.62446813     0.44200
Cu1113     Cu  0.85331904  0.56306339  0.59623170     0.42000
Cu1114     Cu  0.88186037  0.59229458  0.65295316     0.43900
N1115       N  0.92200471  0.55283879  0.65866707    -0.34900
N1116       N  0.91280367  0.57396893  0.66830154    -0.29100
C1117       C  0.92615469  0.58059653  0.68955430    -0.05200
C1118       C  0.94430124  0.56252938  0.69374315     0.07000
C1119       C  0.94110698  0.54515821  0.67391836     0.00800
H1120       H  0.92269378  0.59716761  0.70125032     0.08500
H1121       H  0.95227045  0.52853683  0.67040830     0.07500
N1122       N  0.84962462  0.60552073  0.63502492    -0.36300
N1123       N  0.83927954  0.59487305  0.61432515    -0.28500
C1124       C  0.81871359  0.60789496  0.60750249    -0.03700
C1125       C  0.81582487  0.62777079  0.62479309     0.04900
C1126       C  0.83586319  0.62556702  0.64200234     0.03000
H1127       H  0.80690654  0.60314515  0.59102684     0.04900
H1128       H  0.84022441  0.63749143  0.65850634     0.06900
N1129       N  0.86956726  0.36079619  0.58456044    -0.27500
N1130       N  0.89148070  0.36919079  0.59297769    -0.35300
C1131       C  0.89923963  0.38780442  0.57710675     0.00900
C1132       C  0.88114300  0.39146353  0.55809054     0.06900
C1133       C  0.86254479  0.37417424  0.56348015    -0.06200
H1134       H  0.91654687  0.39815125  0.57950171     0.07600
H1135       H  0.84543174  0.37113982  0.55254151     0.08800
Cu1136     Cu  0.90951184  0.35523294  0.62593460     0.44200
Cu1137     Cu  0.85109606  0.33016842  0.60049548     0.42000
Cu1138     Cu  0.88391131  0.29753727  0.65199080     0.43900
N1139       N  0.92378006  0.33691063  0.65856323    -0.34900
N1140       N  0.91508668  0.31521569  0.66723905    -0.29100
C1141       C  0.92891501  0.30771664  0.68780659    -0.05200
C1142       C  0.94689111  0.32577559  0.69253244     0.07000
C1143       C  0.94310412  0.34406778  0.67374980     0.00800
H1144       H  0.92575519  0.29065869  0.69880609     0.08500
H1145       H  0.95384607  0.36109000  0.67103632     0.07500
N1146       N  0.85081507  0.28491699  0.63569841    -0.36300
N1147       N  0.83864111  0.29686321  0.61694353    -0.28500
C1148       C  0.81797286  0.28372396  0.61067569    -0.03700
C1149       C  0.81701553  0.26248829  0.62637237     0.04900
C1150       C  0.83820748  0.26396431  0.64200543     0.03000
H1151       H  0.80461403  0.28940269  0.59588343     0.08100
H1152       H  0.84429889  0.25071342  0.65672470     0.06900
C1153       C  0.21611430  0.19829236  0.63066453    -0.11000
C1154       C  0.24068249  0.20335477  0.62218479     0.06100
C1155       C  0.24671584  0.22786552  0.61415247    -0.09800
C1156       C  0.22860165  0.24684527  0.61465009    -0.11400
C1157       C  0.20412597  0.24177002  0.62338237    -0.01200
C1158       C  0.19809194  0.21728976  0.63136121    -0.10300
C1159       C  0.25994006  0.18317897  0.62199274     0.06100
H1160       H  0.26556436  0.23250214  0.60790553     0.08100
H1161       H  0.23391594  0.26557051  0.60861783     0.11500
H1162       H  0.17931843  0.21264551  0.63780434     0.11800
H1163       H  0.21069263  0.17953238  0.63649442     0.08100
C1164       C  0.26068795  0.16522397  0.64214658    -0.11000
C1165       C  0.27888596  0.14636614  0.64216586    -0.10300
C1166       C  0.29689868  0.14509255  0.62212801    -0.01200
C1167       C  0.29606795  0.16293739  0.60186555    -0.11400
C1168       C  0.27777759  0.18173207  0.60177592    -0.09800
H1169       H  0.24749440  0.16602171  0.65824736     0.08100
H1170       H  0.27908747  0.13313277  0.65822446     0.11800
H1171       H  0.30940938  0.16234447  0.58591077     0.11500
H1172       H  0.27745115  0.19497757  0.58570460     0.08100
C1173       C  0.77763217  0.20679890  0.64752542    -0.11000
C1174       C  0.76082876  0.20437343  0.62647570     0.06100
C1175       C  0.76272202  0.22121519  0.60537947    -0.09800
C1176       C  0.78087468  0.24009971  0.60538630    -0.11400
C1177       C  0.79768548  0.24250950  0.62641437    -0.01200
C1178       C  0.79588165  0.22560710  0.64746697    -0.10300
C1179       C  0.74135607  0.18443141  0.62649363     0.06100
H1180       H  0.75038724  0.21959158  0.58862413     0.08100
H1181       H  0.78189824  0.25255396  0.58869505     0.11500
H1182       H  0.80830575  0.22705865  0.66414380     0.11800
H1183       H  0.77643398  0.19440717  0.66427793     0.08100
C1184       C  0.74665918  0.16038414  0.63636909    -0.11000
C1185       C  0.72835608  0.14161035  0.63609029    -0.10300
C1186       C  0.70435630  0.14642188  0.62583791    -0.01200
C1187       C  0.69904845  0.17050116  0.61608264    -0.11400
C1188       C  0.71728984  0.18927696  0.61647118    -0.09800
H1189       H  0.76511702  0.15591026  0.64388930     0.08100
H1190       H  0.73321036  0.12325264  0.64357036     0.11800
H1191       H  0.68070330  0.17506198  0.60839042     0.11500
H1192       H  0.71240787  0.20772454  0.60919973     0.08100
C1193       C  0.75562874  0.22919003  0.88375525    -0.11000
C1194       C  0.75863863  0.20640659  0.87029245     0.06100
C1195       C  0.78164800  0.20143104  0.85786702    -0.09800
C1196       C  0.80127980  0.21876647  0.85911712    -0.11400
C1197       C  0.79834791  0.24139586  0.87290712    -0.01200
C1198       C  0.77526519  0.24643142  0.88512224    -0.10300
C1199       C  0.73807339  0.18765865  0.86985798     0.06100
H1200       H  0.78469140  0.18388390  0.84766383     0.08100
H1201       H  0.81886287  0.21420107  0.84965059     0.11500
H1202       H  0.77215591  0.26383373  0.89552585     0.11800
H1203       H  0.73798647  0.23380573  0.89310799     0.08100
C1204       C  0.73322398  0.17340533  0.84725656    -0.11000
C1205       C  0.71438419  0.15518366  0.84729373    -0.10300
C1206       C  0.69987813  0.15103732  0.86984122    -0.01200
C1207       C  0.70442223  0.16554637  0.89226941    -0.11400
C1208       C  0.72339382  0.18356441  0.89232594    -0.09800
H1209       H  0.74391495  0.17641603  0.82950226     0.08100
H1210       H  0.71105920  0.14448667  0.82961142     0.11800
H1211       H  0.69375880  0.16255680  0.91003818     0.11500
H1212       H  0.72693417  0.19389923  0.91019866     0.08100
C1213       C  0.26366536  0.16903304  0.85594352    -0.11000
C1214       C  0.26210660  0.18615743  0.87681177     0.06100
C1215       C  0.27970984  0.18439520  0.89722099    -0.09800
C1216       C  0.29847610  0.16604300  0.89667270    -0.11400
C1217       C  0.30012458  0.14900383  0.87568229    -0.01200
C1218       C  0.28243601  0.15075589  0.85535270    -0.10300
C1219       C  0.24223650  0.20577469  0.87710334     0.06100
H1220       H  0.27924087  0.19745041  0.91345688     0.08100
H1221       H  0.31162676  0.16531143  0.91276988     0.11500
H1222       H  0.28299592  0.13808206  0.83883653     0.11800
H1223       H  0.25016507  0.16954539  0.84011586     0.08100
C1224       C  0.23033177  0.21272696  0.90062035    -0.11000
C1225       C  0.21144987  0.23097372  0.90065822    -0.10300
C1226       C  0.20381307  0.24224965  0.87714753    -0.01200
C1227       C  0.21561528  0.23538681  0.85368764    -0.11400
C1228       C  0.23480606  0.21754611  0.85369184    -0.09800
H1229       H  0.23531742  0.20379218  0.91893294     0.08100
H1230       H  0.20243815  0.23589751  0.91896512     0.11800
H1231       H  0.21025347  0.24413169  0.83537873     0.11500
H1232       H  0.24393889  0.21309004  0.83533314     0.08100
C1233       C  0.23677940  0.66742639  0.60578808    -0.11000
C1234       C  0.23843416  0.68447052  0.62672726     0.06100
C1235       C  0.22040521  0.68311046  0.64680433    -0.09800
C1236       C  0.20108785  0.66539010  0.64578872    -0.11400
C1237       C  0.19939107  0.64843939  0.62476262    -0.01200
C1238       C  0.21758238  0.64961823  0.60486103    -0.10300
C1239       C  0.25853803  0.70388563  0.62726266     0.06100
H1240       H  0.22131844  0.69559478  0.66349543     0.08100
H1241       H  0.18765306  0.66494065  0.66165112     0.11500
H1242       H  0.21688063  0.63708317  0.58823350     0.11800
H1243       H  0.24999593  0.66817003  0.58971223     0.08100
C1244       C  0.28262042  0.69868044  0.61732378    -0.11000
C1245       C  0.30114916  0.71724099  0.61687941    -0.10300
C1246       C  0.29616063  0.74134727  0.62668774    -0.01200
C1247       C  0.27227804  0.74646583  0.63702828    -0.11400
C1248       C  0.25365567  0.72802349  0.63717415    -0.09800
H1249       H  0.28726280  0.68018387  0.61002925     0.08100
H1250       H  0.31946873  0.71258782  0.60912269     0.11800
H1251       H  0.26772099  0.76492473  0.64447144     0.11500
H1252       H  0.23524096  0.73291656  0.64451464     0.08100
C1253       C  0.72740516  0.71200425  0.60055694    -0.11000
C1254       C  0.73802819  0.70379985  0.62426450     0.06100
C1255       C  0.72966482  0.71451640  0.64784774    -0.09800
C1256       C  0.71136343  0.73324709  0.64771774    -0.11400
C1257       C  0.70084758  0.74148149  0.62403471    -0.01200
C1258       C  0.70889449  0.73057768  0.60045989    -0.10300
C1259       C  0.75787968  0.68427505  0.62443561     0.06100
H1260       H  0.73711953  0.70826247  0.66645971     0.08100
H1261       H  0.70523503  0.74106678  0.66621109     0.11500
H1262       H  0.70127509  0.73676639  0.58189896     0.11800
H1263       H  0.73371093  0.70437697  0.58203751     0.08100
C1264       C  0.75653393  0.66361417  0.60743159    -0.11000
C1265       C  0.77526467  0.64527927  0.60758875    -0.10300
C1266       C  0.79581251  0.64716144  0.62476116    -0.01200
C1267       C  0.79708454  0.66783769  0.64181185    -0.11400
C1268       C  0.77836339  0.68617130  0.64162894    -0.09800
H1269       H  0.74079541  0.66142045  0.59422510     0.08100
H1270       H  0.77342520  0.62958943  0.59431504     0.11800
H1271       H  0.81263503  0.67012882  0.65518581     0.11500
H1272       H  0.78014656  0.70206888  0.65469825     0.08100
C1273       C  0.27554110  0.70638021  0.89688165    -0.11000
C1274       C  0.26060385  0.70232739  0.87458867     0.06100
C1275       C  0.26443598  0.71753622  0.85243382    -0.09800
C1276       C  0.28255549  0.73647498  0.85266686    -0.11400
C1277       C  0.29745057  0.74048228  0.87495550    -0.01200
C1278       C  0.29382075  0.72516052  0.89701673    -0.10300
C1279       C  0.24096877  0.68249838  0.87451851     0.06100
H1280       H  0.25362235  0.71462993  0.83475028     0.08100
H1281       H  0.28511567  0.74771721  0.83522333     0.11500
H1282       H  0.30477665  0.72794374  0.91461668     0.11800
H1283       H  0.27281733  0.69533710  0.91444414     0.08100
C1284       C  0.24497781  0.65947992  0.88731890    -0.11000
C1285       C  0.22642828  0.64094533  0.88733773    -0.10300
C1286       C  0.20349506  0.64491161  0.87439871    -0.01200
C1287       C  0.19949425  0.66789915  0.86159447    -0.11400
C1288       C  0.21795786  0.68648460  0.86172622    -0.09800
H1289       H  0.26262199  0.65560058  0.89700823     0.08100
H1290       H  0.23027836  0.62338033  0.89716682     0.11800
H1291       H  0.18195007  0.67176997  0.85174161     0.11500
H1292       H  0.21401302  0.70415915  0.85212558     0.08100
C1293       C  0.74642020  0.73100219  0.86932023    -0.11000
C1294       C  0.74047236  0.70604677  0.87570319     0.06100
C1295       C  0.71560236  0.70009575  0.88242852    -0.09800
C1296       C  0.69714564  0.71869434  0.88299944    -0.11400
C1297       C  0.70309809  0.74360920  0.87662703    -0.01200
C1298       C  0.72789351  0.74958066  0.86969012    -0.10300
C1299       C  0.76010775  0.68627907  0.87556061     0.06100
H1300       H  0.71034144  0.68096765  0.88699013     0.08100
H1301       H  0.67812442  0.71346808  0.88804291     0.11500
H1302       H  0.73307298  0.76868496  0.86494267     0.11800
H1303       H  0.76548032  0.73623346  0.86441843     0.08100
C1304       C  0.76068283  0.66794639  0.89531285    -0.11000
C1305       C  0.77897697  0.64918360  0.89516816    -0.10300
C1306       C  0.79718621  0.64829744  0.87527457    -0.01200
C1307       C  0.79666733  0.66671414  0.85555052    -0.11400
C1308       C  0.77833852  0.68549321  0.85569874    -0.09800
H1309       H  0.74714950  0.66829467  0.91112813     0.08100
H1310       H  0.77892835  0.63557056  0.91087128     0.11800
H1311       H  0.81020293  0.66652819  0.83976823     0.11500
H1312       H  0.77818720  0.69916971  0.84001842     0.08100
loop_ 
_geom_bond_atom_site_label_1 
_geom_bond_atom_site_label_2 
_geom_bond_distance 
_geom_bond_site_symmetry_2 
_ccdc_geom_bond_type 
O1           Cu9   2.006       .  S
O1           C11   1.277       .  A
O2         Cu665   2.004       .  S
O2           C12   1.276       .  A
O3           Cu9   2.009       .  S
O3           C13   1.278       .  A
O4         Cu665   2.010       .  S
O4           C14   1.277       .  A
O5          Cu10   2.006       .  S
O5           C14   1.277       .  A
O6         Cu666   2.009       .  S
O6           C13   1.277       .  A
O7          Cu10   2.014       .  S
O7           C12   1.278       .  A
O8         Cu666   2.014       .  S
O8           C11   1.278       .  A
Cu9         O658   2.004   1_554  S
Cu9         O660   2.010   1_554  S
Cu9        Cu666   2.377       .  S
Cu10        O662   2.009       .  S
Cu10        O664   2.014       .  S
Cu10       Cu665   2.377       .  S
C11         C100   1.467       .  S
C12          C18   1.466       .  S
C13          C76   1.465       .  S
C14          C52   1.465       .  S
N15          N16   1.323       .  A
N15          C19   1.345       .  A
N15         Cu23   2.075       .  S
N16          C17   1.345       .  A
N16         Cu22   2.073       .  S
C17          C18   1.382       .  A
C17          H20   1.082       .  S
C18          C19   1.382       .  A
C19          H21   1.082       .  S
Cu22         N25   2.073       .  S
Cu23         N33   2.075       .  S
Cu24         N26   2.070       .  S
Cu24         N32   2.070       .  S
N25          N26   1.322       .  A
N25          C29   1.346       .  A
N26          C27   1.344       .  A
C27          C28   1.381       .  A
C27          H30   1.082       .  S
C28         C121   1.466       .  S
C28          C29   1.383       .  A
C29          H31   1.082       .  S
N32          N33   1.322       .  A
N32          C36   1.344       .  A
N33          C34   1.345       .  A
C34          C35   1.386       .  A
C34          H37   1.082       .  S
C35         C641   1.479       .  S
C35          C36   1.384       .  A
C36          H38   1.082       .  S
N39          N40   1.322       .  A
N39          C43   1.345       .  A
N39         Cu47   2.075       .  S
N40          C41   1.346       .  A
N40         Cu46   2.075       .  S
C41          C42   1.383       .  A
C41          H44   1.082       .  S
C42         C135   1.468       .  S
C42          C43   1.382       .  A
C43          H45   1.082       .  S
Cu46         N49   2.075       .  S
Cu47         N57   2.076       .  S
Cu48         N50   2.069       .  S
Cu48         N56   2.069       .  S
N49          N50   1.322       .  A
N49          C53   1.344       .  A
N50          C51   1.345       .  A
C51          C52   1.382       .  A
C51          H54   1.082       .  S
C52          C53   1.382       .  A
C53          H55   1.082       .  S
N56          N57   1.322       .  A
N56          C60   1.344       .  A
N57          C58   1.345       .  A
C58          C59   1.387       .  A
C58          H61   1.082       .  S
C59         C621   1.481       .  S
C59          C60   1.385       .  A
C60          H62   1.082       .  S
N63          N64   1.323       .  A
N63          C67   1.345       .  A
N63         Cu71   2.067       .  S
N64          C65   1.345       .  A
N64         Cu70   2.077       .  S
C65          C66   1.382       .  A
C65          H68   1.082       .  S
C66         C124   1.464       .  S
C66          C67   1.381       .  A
C67          H69   1.082       .  S
Cu70         N73   2.077       .  S
Cu71         N81   2.067       .  S
Cu72         N74   2.067       .  S
Cu72         N80   2.067       .  S
N73          N74   1.322       .  A
N73          C77   1.347       .  A
N74          C75   1.343       .  A
C75          C76   1.380       .  A
C75          H78   1.082       .  S
C76          C77   1.383       .  A
C77          H79   1.082       .  S
N80          N81   1.321       .  A
N80          C84   1.344       .  A
N81          C82   1.343       .  A
C82          C83   1.384       .  A
C82          H85   1.082       .  S
C83         C601   1.476       .  S
C83          C84   1.385       .  A
C84          H86   1.082       .  S
N87          N88   1.322       .  A
N87          C91   1.345       .  A
N87         Cu95   2.073       .  S
N88          C89   1.345       .  A
N88         Cu94   2.072       .  S
C89          C90   1.382       .  A
C89          H92   1.082       .  S
C90         C138   1.467       .  S
C90          C91   1.382       .  A
C91          H93   1.082       .  S
Cu94         N97   2.072       .  S
Cu95        N105   2.073       .  S
Cu96         N98   2.077       .  S
Cu96        N104   2.077       .  S
N97          N98   1.323       .  A
N97         C101   1.345       .  A
N98          C99   1.345       .  A
C99         C100   1.383       .  A
C99         H102   1.082       .  S
C100        C101   1.381       .  A
C101        H103   1.082       .  S
N104        N105   1.322       .  A
N104        C108   1.346       .  A
N105        C106   1.344       .  A
C106        C107   1.385       .  A
C106        H109   1.082       .  S
C107        C590   1.482       .  S
C107        C108   1.387       .  A
C108        H110   1.082       .  S
O111       Cu119   2.007       .  S
O111        C121   1.277       .  A
O112       Cu119   2.010       .  S
O112        C122   1.277       .  A
O113       Cu119   2.010       .  S
O113        C123   1.278       .  A
O114       Cu119   2.009       .  S
O114        C124   1.277       .  A
O115       Cu120   2.006       .  S
O115        C124   1.277       .  A
O116       Cu120   2.009       .  S
O116        C123   1.277       .  A
O117       Cu120   2.011       .  S
O117        C122   1.278       .  A
O118       Cu120   2.010       .  S
O118        C121   1.277       .  A
Cu119      Cu120   2.377       .  S
C122        C214   1.468       .  S
C123        C190   1.466       .  S
O125       Cu133   2.015       .  S
O125        C135   1.278       .  A
O126       Cu133   2.016       .  S
O126        C136   1.278       .  A
O127       Cu133   2.014       .  S
O127        C137   1.278       .  A
O128       Cu133   2.013       .  S
O128        C138   1.278       .  A
O129       Cu134   2.009       .  S
O129        C138   1.277       .  A
O130       Cu134   2.011       .  S
O130        C137   1.277       .  A
O131       Cu134   2.009       .  S
O131        C136   1.277       .  A
O132       Cu134   2.010       .  S
O132        C135   1.277       .  A
Cu133      Cu134   2.376       .  S
C136        C238   1.470       .  S
C137        C156   1.468       .  S
O139       Cu803   2.011       .  S
O139        C149   1.277       .  A
O140       Cu147   2.006       .  S
O140        C150   1.277       .  A
O141       Cu803   2.009       .  S
O141        C151   1.277       .  A
O142       Cu147   2.008       .  S
O142        C152   1.277       .  A
O143       Cu804   2.011       .  S
O143        C152   1.278       .  A
O144       Cu148   2.009       .  S
O144        C151   1.278       .  A
O145       Cu804   2.006       .  S
O145        C150   1.277       .  A
O146       Cu148   2.011       .  S
O146        C149   1.278       .  A
Cu147       O795   2.011   1_554  S
Cu147       O797   2.009   1_554  S
Cu147      Cu804   2.377       .  S
Cu148       O799   2.011       .  S
Cu148       O801   2.006       .  S
Cu148      Cu803   2.377       .  S
C149        C180   1.468       .  S
C150        C228   1.464       .  S
C151        C166   1.466       .  S
C152        C204   1.467       .  S
N153        N154   1.323       .  A
N153        C157   1.345       .  A
N153       Cu161   2.077       .  S
N154        C155   1.347       .  A
N154       Cu160   2.080       .  S
C155        C156   1.383   1_545  A
C155        H158   1.082   1_545  S
C156        C157   1.382   1_565  A
C157        H159   1.082       .  S
Cu160       N163   2.079       .  S
Cu161       N171   2.077       .  S
Cu162       N164   2.067       .  S
Cu162       N170   2.067       .  S
N163        N164   1.323       .  A
N163        C167   1.347       .  A
N164        C165   1.344       .  A
C165        C166   1.380       .  A
C165        H168   1.082       .  S
C166        C167   1.384       .  A
C167        H169   1.082       .  S
N170        N171   1.320       .  A
N170        C174   1.344       .  A
N171        C172   1.344       .  A
C172        C173   1.390       .  A
C172        H175   1.081       .  S
C173        C561   1.487       .  S
C173        C174   1.388       .  A
C174        H176   1.081       .  S
N177        N178   1.322       .  A
N177        C181   1.345       .  A
N177       Cu185   2.069       .  S
N178        C179   1.346       .  A
N178       Cu184   2.080       .  S
C179        C180   1.383       .  A
C179        H182   1.082       .  S
C180        C181   1.382       .  A
C181        H183   1.082       .  S
Cu184       N187   2.081       .  S
Cu185       N195   2.069       .  S
Cu186       N188   2.064       .  S
Cu186       N194   2.065       .  S
N187        N188   1.322       .  A
N187        C191   1.346       .  A
N188        C189   1.344       .  A
C189        C190   1.380   1_545  A
C189        H192   1.082       .  S
C190        C191   1.384   1_565  A
C191        H193   1.082   1_545  S
N194        N195   1.321       .  A
N194        C198   1.343       .  A
N195        C196   1.343       .  A
C196        C197   1.385       .  A
C196        H199   1.082       .  S
C197        C550   1.476       .  S
C197        C198   1.384       .  A
C198        H200   1.082       .  S
N201        N202   1.322       .  A
N201        C205   1.345       .  A
N201       Cu209   2.068       .  S
N202        C203   1.345       .  A
N202       Cu208   2.078       .  S
C203        C204   1.383       .  A
C203        H206   1.082       .  S
C204        C205   1.381       .  A
C205        H207   1.082       .  S
Cu208       N211   2.078       .  S
Cu209       N219   2.069       .  S
Cu210       N212   2.071       .  S
Cu210       N218   2.071       .  S
N211        N212   1.323       .  A
N211        C215   1.345       .  A
N212        C213   1.345       .  A
C213        C214   1.382   1_545  A
C213        H216   1.082       .  S
C214        C215   1.383   1_565  A
C215        H217   1.082   1_545  S
N218        N219   1.321       .  A
N218        C222   1.344       .  A
N219        C220   1.343       .  A
C220        C221   1.387       .  A
C220        H223   1.081       .  S
C221        C530   1.483       .  S
C221        C222   1.387       .  A
C222        H224   1.081       .  S
N225        N226   1.322       .  A
N225        C229   1.344       .  A
N225       Cu233   2.062       .  S
N226        C227   1.345       .  A
N226       Cu232   2.077       .  S
C227        C228   1.383       .  A
C227        H230   1.082       .  S
C228        C229   1.380       .  A
C229        H231   1.082       .  S
Cu232       N235   2.078       .  S
Cu233       N243   2.063       .  S
Cu234       N236   2.077       .  S
Cu234       N242   2.077       .  S
N235        N236   1.323       .  A
N235        C239   1.347       .  A
N236        C237   1.345       .  A
C237        C238   1.382   1_545  A
C237        H240   1.082       .  S
C238        C239   1.384   1_565  A
C239        H241   1.082   1_545  S
N242        N243   1.321       .  A
N242        C246   1.345       .  A
N243        C244   1.343       .  A
C244        C245   1.385       .  A
C244        H247   1.081       .  S
C245        C510   1.482       .  S
C245        C246   1.388       .  A
C246        H248   1.081       .  S
O249       Cu257   2.010       .  S
O249        C259   1.277       .  A
O250       Cu257   2.009   1_455  S
O250        C260   1.277       .  A
O251       Cu257   2.001   1_455  S
O251        C261   1.276       .  A
O252       Cu257   2.002       .  S
O252        C262   1.276       .  A
O253       Cu258   2.013       .  S
O253        C262   1.278       .  A
O254       Cu258   2.013   1_455  S
O254        C261   1.278       .  A
O255       Cu258   2.010   1_455  S
O255        C260   1.277       .  A
O256       Cu258   2.010       .  S
O256        C259   1.277       .  A
Cu257      Cu258   2.378       .  S
C259        C462   1.466       .  S
C260        C294   1.466       .  S
C261        C376   1.465       .  S
C262        C428   1.465       .  S
O263       Cu271   2.007       .  S
O263        C273   1.277       .  A
O264       Cu271   2.009   1_655  S
O264        C274   1.278       .  A
O265       Cu271   2.010   1_655  S
O265        C275   1.278       .  A
O266       Cu271   2.011       .  S
O266        C276   1.278       .  A
O267       Cu272   2.003       .  S
O267        C276   1.276       .  A
O268       Cu272   2.002   1_655  S
O268        C275   1.276       .  A
O269       Cu272   2.014   1_655  S
O269        C274   1.278       .  A
O270       Cu272   2.012       .  S
O270        C273   1.278       .  A
Cu271      Cu272   2.378       .  S
C273        C342   1.466       .  S
C274        C404   1.468       .  S
C275        C486   1.463       .  S
C276        C328   1.464       .  S
O277       Cu285   2.009       .  S
O277        C287   1.277       .  A
O278       Cu941   2.007       .  S
O278        C288   1.277       .  A
O279       Cu285   2.010       .  S
O279        C289   1.278       .  A
O280       Cu941   2.009       .  S
O280        C290   1.278       .  A
O281       Cu286   2.001   1_554  S
O281        C290   1.276       .  A
O282       Cu942   2.000       .  S
O282        C289   1.276       .  A
O283       Cu286   2.009   1_554  S
O283        C288   1.277       .  A
O284       Cu942   2.009       .  S
O284        C287   1.277       .  A
Cu285       O934   2.007       .  S
Cu285       O936   2.009       .  S
Cu285      Cu942   2.378       .  S
Cu286       O938   2.000       .  S
Cu286       O940   2.009       .  S
Cu286      Cu941   2.378   1_556  S
C287        C318   1.465       .  S
C288        C366   1.464       .  S
C289        C304   1.463       .  S
C290        C352   1.464       .  S
N291        N292   1.322       .  A
N291        C295   1.345       .  A
N291       Cu299   2.074       .  S
N292        C293   1.345       .  A
N292       Cu298   2.071       .  S
C293        C294   1.382       .  A
C293        H296   1.082       .  S
C294        C295   1.382       .  A
C295        H297   1.082       .  S
Cu298       N301   2.071       .  S
Cu299       N309   2.074       .  S
Cu300       N302   2.069       .  S
Cu300       N308   2.069       .  S
N301        N302   1.322       .  A
N301        C305   1.345       .  A
N302        C303   1.343       .  A
C303        C304   1.381       .  A
C303        H306   1.082       .  S
C304        C305   1.381       .  A
C305        H307   1.082       .  S
N308        N309   1.321       .  A
N308        C312   1.344       .  A
N309        C310   1.344       .  A
C310        C311   1.387       .  A
C310        H313   1.081       .  S
C311        C630   1.483       .  S
C311        C312   1.387       .  A
C312        H314   1.081       .  S
N315        N316   1.322       .  A
N315        C319   1.344       .  A
N315       Cu323   2.070       .  S
N316        C317   1.346       .  A
N316       Cu322   2.074       .  S
C317        C318   1.383       .  A
C317        H320   1.082       .  S
C318        C319   1.380       .  A
C319        H321   1.082       .  S
Cu322       N325   2.073       .  S
Cu323       N333   2.070       .  S
Cu324       N326   2.073       .  S
Cu324       N332   2.073       .  S
N325        N326   1.323       .  A
N325        C329   1.344       .  A
N326        C327   1.345       .  A
C327        C328   1.381       .  A
C327        H330   1.082       .  S
C328        C329   1.381       .  A
C329        H331   1.082       .  S
N332        N333   1.322       .  A
N332        C336   1.345       .  A
N333        C334   1.345       .  A
C334        C335   1.383       .  A
C334        H337   1.082       .  S
C335        C570   1.474       .  S
C335        C336   1.384       .  A
C336        H338   1.082       .  S
N339        N340   1.322       .  A
N339        C343   1.346       .  A
N339       Cu347   2.074       .  S
N340        C341   1.344       .  A
N340       Cu346   2.069       .  S
C341        C342   1.381       .  A
C341        H344   1.082       .  S
C342        C343   1.383       .  A
C343        H345   1.082       .  S
Cu346       N349   2.069       .  S
Cu347       N357   2.074       .  S
Cu348       N350   2.070       .  S
Cu348       N356   2.070       .  S
N349        N350   1.322       .  A
N349        C353   1.344       .  A
N350        C351   1.344       .  A
C351        C352   1.382       .  A
C351        H354   1.082       .  S
C352        C353   1.381       .  A
C353        H355   1.082       .  S
N356        N357   1.322       .  A
N356        C360   1.345       .  A
N357        C358   1.343       .  A
C358        C359   1.386       .  A
C358        H361   1.081       .  S
C359        C501   1.480       .  S
C359        C360   1.386       .  A
C360        H362   1.082       .  S
N363        N364   1.322       .  A
N363        C367   1.345       .  A
N363       Cu371   2.071       .  S
N364        C365   1.345       .  A
N364       Cu370   2.072       .  S
C365        C366   1.381       .  A
C365        H368   1.082       .  S
C366        C367   1.381       .  A
C367        H369   1.082       .  S
Cu370       N373   2.072       .  S
Cu371       N381   2.071       .  S
Cu372       N374   2.072       .  S
Cu372       N380   2.072       .  S
N373        N374   1.323       .  A
N373        C377   1.346       .  A
N374        C375   1.344       .  A
C375        C376   1.381       .  A
C375        H378   1.082       .  S
C376        C377   1.382       .  A
C377        H379   1.082       .  S
N380        N381   1.321       .  A
N380        C384   1.345       .  A
N381        C382   1.343       .  A
C382        C383   1.388       .  A
C382        H385   1.081       .  S
C383        C581   1.486       .  S
C383        C384   1.389       .  A
C384        H386   1.081       .  S
O387      Cu1051   2.019       .  S
O387        C397   1.279       .  A
O388       Cu395   2.016       .  S
O388        C398   1.279       .  A
O389      Cu1051   2.003       .  S
O389        C399   1.276       .  A
O390       Cu395   2.004       .  S
O390        C400   1.277       .  A
O391       Cu396   2.015   1_554  S
O391        C400   1.278       .  A
O392      Cu1052   2.012       .  S
O392        C399   1.278       .  A
O393       Cu396   2.009   1_554  S
O393        C398   1.277       .  A
O394      Cu1052   2.010       .  S
O394        C397   1.277       .  A
Cu395      O1043   2.019   1_554  S
Cu395      O1045   2.003   1_554  S
Cu395      Cu396   2.377   1_554  S
Cu396      O1048   2.012       .  S
Cu396      O1050   2.010       .  S
C397        C414   1.470       .  S
C398        C452   1.468       .  S
C399        C438   1.465       .  S
C400        C476   1.467       .  S
N401        N402   1.323       .  A
N401        C405   1.344       .  A
N401       Cu409   2.069       .  S
N402        C403   1.347       .  A
N402       Cu408   2.084       .  S
C403        C404   1.384       .  A
C403        H406   1.082       .  S
C404        C405   1.381       .  A
C405        H407   1.082       .  S
Cu408       N411   2.085       .  S
Cu409       N419   2.069       .  S
Cu410       N412   2.070       .  S
Cu410       N418   2.070       .  S
N411        N412   1.323       .  A
N411        C415   1.346       .  A
N412        C413   1.346       .  A
C413        C414   1.382       .  A
C413        H416   1.082       .  S
C414        C415   1.384       .  A
C415        H417   1.082       .  S
N418        N419   1.321       .  A
N418        C422   1.342       .  A
N419        C420   1.345       .  A
C420        C421   1.387       .  A
C420        H423   1.081       .  S
C421        C541   1.481       .  S
C421        C422   1.386       .  A
C422        H424   1.081       .  S
N425        N426   1.322       .  A
N425        C429   1.344       .  A
N425       Cu433   2.072       .  S
N426        C427   1.345       .  A
N426       Cu432   2.066       .  S
C427        C428   1.381       .  A
C427        H430   1.082       .  S
C428        C429   1.382       .  A
C429        H431   1.082       .  S
Cu432       N435   2.065       .  S
Cu433       N443   2.072       .  S
Cu434       N436   2.075       .  S
Cu434       N442   2.076       .  S
N435        N436   1.322       .  A
N435        C439   1.344       .  A
N436        C437   1.345       .  A
C437        C438   1.383       .  A
C437        H440   1.082       .  S
C438        C439   1.380       .  A
C439        H441   1.082       .  S
N442        N443   1.322       .  A
N442        C446   1.344       .  A
N443        C444   1.344       .  A
C444        C445   1.387       .  A
C444        H447   1.081       .  S
C445        C650   1.484       .  S
C445        C446   1.388       .  A
C446        H448   1.081       .  S
N449        N450   1.322       .  A
N449        C453   1.345       .  A
N449       Cu457   2.071       .  S
N450        C451   1.347       .  A
N450       Cu456   2.081       .  S
C451        C452   1.384       .  A
C451        H454   1.082       .  S
C452        C453   1.381       .  A
C453        H455   1.082       .  S
Cu456       N459   2.080       .  S
Cu457       N467   2.070       .  S
Cu458       N460   2.071       .  S
Cu458       N466   2.070       .  S
N459        N460   1.323       .  A
N459        C463   1.346       .  A
N460        C461   1.345       .  A
C461        C462   1.381       .  A
C461        H464   1.082       .  S
C462        C463   1.382       .  A
C463        H465   1.082       .  S
N466        N467   1.321       .  A
N466        C470   1.344       .  A
N467        C468   1.343       .  A
C468        C469   1.388       .  A
C468        H471   1.081       .  S
C469        C610   1.485       .  S
C469        C470   1.388       .  A
C470        H472   1.081       .  S
N473        N474   1.323       .  A
N473        C477   1.344       .  A
N473       Cu481   2.073       .  S
N474        C475   1.346       .  A
N474       Cu480   2.076       .  S
C475        C476   1.383       .  A
C475        H478   1.082       .  S
C476        C477   1.381       .  A
C477        H479   1.082       .  S
Cu480       N483   2.076       .  S
Cu481       N491   2.073       .  S
Cu482       N484   2.063       .  S
Cu482       N490   2.063       .  S
N483        N484   1.322       .  A
N483        C487   1.345       .  A
N484        C485   1.344       .  A
C485        C486   1.380       .  A
C485        H488   1.082       .  S
C486        C487   1.382       .  A
C487        H489   1.082       .  S
N490        N491   1.320       .  A
N490        C494   1.343       .  A
N491        C492   1.344       .  A
C492        C493   1.388       .  A
C492        H495   1.081       .  S
C493        C521   1.482       .  S
C493        C494   1.386       .  A
C494        H496   1.081       .  S
C497        C498   1.405       .  A
C497        C502   1.396       .  A
C497        H507   1.083       .  S
C498        C503   1.486       .  S
C498        C499   1.407       .  A
C499        C500   1.398       .  A
C499        H504   1.083       .  S
C500        C501   1.405       .  A
C500        H505   1.082       .  S
C501        C502   1.404       .  A
C502        H506   1.082       .  S
C503        C508   1.406       .  A
C503        C512   1.405       .  A
C508        C509   1.396       .  A
C508        H513   1.083       .  S
C509        C510   1.405       .  A
C509        H514   1.082       .  S
C510        C511   1.406       .  A
C511        C512   1.397       .  A
C511        H515   1.082       .  S
C512        H516   1.083       .  S
C517        C518   1.405       .  A
C517        C522   1.397       .  A
C517        H527   1.083       .  S
C518        C523   1.486       .  S
C518        C519   1.406       .  A
C519        C520   1.396       .  A
C519        H524   1.083       .  S
C520        C521   1.405       .  A
C520        H525   1.082       .  S
C521        C522   1.406       .  A
C522        H526   1.082       .  S
C523        C528   1.406       .  A
C523        C532   1.405       .  A
C528        C529   1.398       .  A
C528        H533   1.083       .  S
C529        C530   1.406       .  A
C529        H534   1.082       .  S
C530        C531   1.405       .  A
C531        C532   1.396       .  A
C531        H535   1.081       .  S
C532        H536   1.083       .  S
C537        C538   1.405       .  A
C537        C542   1.395       .  A
C537        H547   1.083       .  S
C538        C543   1.484       .  S
C538        C539   1.406       .  A
C539        C540   1.398       .  A
C539        H544   1.083       .  S
C540        C541   1.405       .  A
C540        H545   1.082       .  S
C541        C542   1.405       .  A
C542        H546   1.082       .  S
C543        C548   1.406       .  A
C543        C552   1.406       .  A
C548        C549   1.397       .  A
C548        H553   1.083       .  S
C549        C550   1.404       .  A
C549        H554   1.083       .  S
C550        C551   1.403       .  A
C551        C552   1.395       .  A
C551        H555   1.082       .  S
C552        H556   1.083       .  S
C557        C558   1.406       .  A
C557        C562   1.396       .  A
C557        H567   1.083       .  S
C558        C563   1.488       .  S
C558        C559   1.406       .  A
C559        C560   1.399       .  A
C559        H564   1.083       .  S
C560        C561   1.408       .  A
C560        H565   1.081       .  S
C561        C562   1.406       .  A
C562        H566   1.081       .  S
C563        C568   1.408       .  A
C563        C572   1.407       .  A
C568        C569   1.399       .  A
C568        H573   1.083       .  S
C569        C570   1.403       .  A
C569        H574   1.083       .  S
C570        C571   1.401       .  A
C571        C572   1.396       .  A
C571        H575   1.083       .  S
C572        H576   1.083       .  S
C577        C578   1.406       .  A
C577        C582   1.397       .  A
C577        H587   1.082       .  S
C578        C583   1.490       .  S
C578        C579   1.407       .  A
C579        C580   1.398       .  A
C579        H584   1.082       .  S
C580        C581   1.406       .  A
C580        H585   1.081       .  S
C581        C582   1.406       .  A
C582        H586   1.081       .  S
C583        C588   1.408       .  A
C583        C592   1.407       .  A
C588        C589   1.398       .  A
C588        H593   1.082       .  S
C589        C590   1.404       .  A
C589        H594   1.082       .  S
C590        C591   1.405       .  A
C591        C592   1.397       .  A
C591        H595   1.082       .  S
C592        H596   1.082       .  S
C597        C598   1.406       .  A
C597        C602   1.397       .  A
C597        H607   1.083       .  S
C598        C603   1.484       .  S
C598        C599   1.405       .  A
C599        C600   1.395       .  A
C599        H604   1.083       .  S
C600        C601   1.403       .  A
C600        H605   1.083       .  S
C601        C602   1.404       .  A
C602        H606   1.083       .  S
C603        C608   1.404       .  A
C603        C612   1.405       .  A
C608        C609   1.397       .  A
C608        H613   1.083       .  S
C609        C610   1.407       .  A
C609        H614   1.081       .  S
C610        C611   1.406       .  A
C611        C612   1.396       .  A
C611        H615   1.081       .  S
C612        H616   1.083       .  S
C617        C618   1.406       .  A
C617        C622   1.397       .  A
C617        H627   1.083       .  S
C618        C623   1.488       .  S
C618        C619   1.407       .  A
C619        C620   1.397       .  A
C619        H624   1.083       .  S
C620        C621   1.404       .  A
C620        H625   1.082       .  S
C621        C622   1.405       .  A
C622        H626   1.082       .  S
C623        C628   1.406       .  A
C623        C632   1.406       .  A
C628        C629   1.398       .  A
C628        H633   1.083       .  S
C629        C630   1.406       .  A
C629        H634   1.082       .  S
C630        C631   1.405       .  A
C631        C632   1.397       .  A
C631        H635   1.082       .  S
C632        H636   1.083       .  S
C637        C638   1.406       .  A
C637        C642   1.398       .  A
C637        H647   1.083       .  S
C638        C643   1.485       .  S
C638        C639   1.406       .  A
C639        C640   1.397       .  A
C639        H644   1.083       .  S
C640        C641   1.404       .  A
C640        H645   1.083       .  S
C641        C642   1.405       .  A
C642        H646   1.083       .  S
C643        C648   1.405       .  A
C643        C652   1.405       .  A
C648        C649   1.396       .  A
C648        H653   1.083       .  S
C649        C650   1.406       .  A
C649        H654   1.081       .  S
C650        C651   1.407       .  A
C651        C652   1.398       .  A
C651        H655   1.082       .  S
C652        H656   1.083       .  S
O657       Cu665   2.006       .  S
O657        C667   1.277       .  A
O658        C668   1.276       .  A
O659       Cu665   2.009       .  S
O659        C669   1.278       .  A
O660        C670   1.277       .  A
O661       Cu666   2.006   1_556  S
O661        C670   1.277       .  A
O662        C669   1.277       .  A
O663       Cu666   2.014   1_556  S
O663        C668   1.278       .  A
O664        C667   1.278       .  A
C667        C756   1.467       .  S
C668        C674   1.466       .  S
C669        C732   1.465       .  S
C670        C708   1.465       .  S
N671        N672   1.323       .  A
N671        C675   1.345       .  A
N671       Cu679   2.075       .  S
N672        C673   1.345       .  A
N672       Cu678   2.073       .  S
C673        C674   1.382       .  A
C673        H676   1.082       .  S
C674        C675   1.382       .  A
C675        H677   1.082       .  S
Cu678       N681   2.073       .  S
Cu679       N689   2.075       .  S
Cu680       N682   2.070       .  S
Cu680       N688   2.070       .  S
N681        N682   1.322       .  A
N681        C685   1.346       .  A
N682        C683   1.344       .  A
C683        C684   1.381       .  A
C683        H686   1.082       .  S
C684        C777   1.466       .  S
C684        C685   1.383       .  A
C685        H687   1.082       .  S
N688        N689   1.322       .  A
N688        C692   1.344       .  A
N689        C690   1.345       .  A
C690        C691   1.386       .  A
C690        H693   1.082       .  S
C691       C1297   1.479       .  S
C691        C692   1.384       .  A
C692        H694   1.082       .  S
N695        N696   1.322       .  A
N695        C699   1.345       .  A
N695       Cu703   2.075       .  S
N696        C697   1.346       .  A
N696       Cu702   2.075       .  S
C697        C698   1.383       .  A
C697        H700   1.082       .  S
C698        C791   1.468       .  S
C698        C699   1.382       .  A
C699        H701   1.082       .  S
Cu702       N705   2.075       .  S
Cu703       N713   2.076       .  S
Cu704       N706   2.069       .  S
Cu704       N712   2.069       .  S
N705        N706   1.322       .  A
N705        C709   1.344       .  A
N706        C707   1.345       .  A
C707        C708   1.382       .  A
C707        H710   1.082       .  S
C708        C709   1.382       .  A
C709        H711   1.082       .  S
N712        N713   1.322       .  A
N712        C716   1.344       .  A
N713        C714   1.345       .  A
C714        C715   1.387       .  A
C714        H717   1.082       .  S
C715       C1277   1.481       .  S
C715        C716   1.385       .  A
C716        H718   1.082       .  S
N719        N720   1.323       .  A
N719        C723   1.345       .  A
N719       Cu727   2.067       .  S
N720        C721   1.345       .  A
N720       Cu726   2.077       .  S
C721        C722   1.382       .  A
C721        H724   1.082       .  S
C722        C780   1.464       .  S
C722        C723   1.381       .  A
C723        H725   1.082       .  S
Cu726       N729   2.077       .  S
Cu727       N737   2.067       .  S
Cu728       N730   2.067       .  S
Cu728       N736   2.067       .  S
N729        N730   1.322       .  A
N729        C733   1.347       .  A
N730        C731   1.343       .  A
C731        C732   1.380       .  A
C731        H734   1.082       .  S
C732        C733   1.383       .  A
C733        H735   1.082       .  S
N736        N737   1.321       .  A
N736        C740   1.344       .  A
N737        C738   1.343       .  A
C738        C739   1.384       .  A
C738        H741   1.082       .  S
C739       C1257   1.476       .  S
C739        C740   1.385       .  A
C740        H742   1.082       .  S
N743        N744   1.322       .  A
N743        C747   1.345       .  A
N743       Cu751   2.073       .  S
N744        C745   1.345       .  A
N744       Cu750   2.072       .  S
C745        C746   1.382       .  A
C745        H748   1.082       .  S
C746        C794   1.467       .  S
C746        C747   1.382       .  A
C747        H749   1.082       .  S
Cu750       N753   2.072       .  S
Cu751       N761   2.073       .  S
Cu752       N754   2.077       .  S
Cu752       N760   2.077       .  S
N753        N754   1.323       .  A
N753        C757   1.345       .  A
N754        C755   1.345       .  A
C755        C756   1.383       .  A
C755        H758   1.082       .  S
C756        C757   1.381       .  A
C757        H759   1.082       .  S
N760        N761   1.322       .  A
N760        C764   1.346       .  A
N761        C762   1.344       .  A
C762        C763   1.385       .  A
C762        H765   1.082       .  S
C763       C1246   1.482       .  S
C763        C764   1.387       .  A
C764        H766   1.082       .  S
O767       Cu775   2.007       .  S
O767        C777   1.277       .  A
O768       Cu775   2.010       .  S
O768        C778   1.277       .  A
O769       Cu775   2.010       .  S
O769        C779   1.278       .  A
O770       Cu775   2.009       .  S
O770        C780   1.277       .  A
O771       Cu776   2.006       .  S
O771        C780   1.277       .  A
O772       Cu776   2.009       .  S
O772        C779   1.277       .  A
O773       Cu776   2.011       .  S
O773        C778   1.278       .  A
O774       Cu776   2.010       .  S
O774        C777   1.277       .  A
Cu775      Cu776   2.377       .  S
C778        C870   1.468       .  S
C779        C846   1.466       .  S
O781       Cu789   2.015       .  S
O781        C791   1.278       .  A
O782       Cu789   2.016       .  S
O782        C792   1.278       .  A
O783       Cu789   2.014       .  S
O783        C793   1.278       .  A
O784       Cu789   2.013       .  S
O784        C794   1.278       .  A
O785       Cu790   2.009       .  S
O785        C794   1.277       .  A
O786       Cu790   2.011       .  S
O786        C793   1.277       .  A
O787       Cu790   2.009       .  S
O787        C792   1.277       .  A
O788       Cu790   2.010       .  S
O788        C791   1.277       .  A
Cu789      Cu790   2.376       .  S
C792        C894   1.470       .  S
C793        C812   1.468       .  S
O795        C805   1.277       .  A
O796       Cu803   2.006       .  S
O796        C806   1.277       .  A
O797        C807   1.277       .  A
O798       Cu803   2.008       .  S
O798        C808   1.277       .  A
O799        C808   1.278       .  A
O800       Cu804   2.009   1_556  S
O800        C807   1.278       .  A
O801        C806   1.277       .  A
O802       Cu804   2.011   1_556  S
O802        C805   1.278       .  A
C805        C836   1.468       .  S
C806        C884   1.464       .  S
C807        C822   1.466       .  S
C808        C860   1.467       .  S
N809        N810   1.323       .  A
N809        C813   1.345       .  A
N809       Cu817   2.077       .  S
N810        C811   1.347       .  A
N810       Cu816   2.080       .  S
C811        C812   1.383   1_545  A
C811        H814   1.082   1_545  S
C812        C813   1.382   1_565  A
C813        H815   1.082       .  S
Cu816       N819   2.079       .  S
Cu817       N827   2.077       .  S
Cu818       N820   2.067       .  S
Cu818       N826   2.067       .  S
N819        N820   1.323       .  A
N819        C823   1.347       .  A
N820        C821   1.344       .  A
C821        C822   1.380       .  A
C821        H824   1.082       .  S
C822        C823   1.384       .  A
C823        H825   1.082       .  S
N826        N827   1.320       .  A
N826        C830   1.344       .  A
N827        C828   1.344       .  A
C828        C829   1.390       .  A
C828        H831   1.081       .  S
C829       C1217   1.487       .  S
C829        C830   1.388       .  A
C830        H832   1.081       .  S
N833        N834   1.322       .  A
N833        C837   1.345       .  A
N833       Cu841   2.069       .  S
N834        C835   1.346       .  A
N834       Cu840   2.080       .  S
C835        C836   1.383       .  A
C835        H838   1.082       .  S
C836        C837   1.382       .  A
C837        H839   1.082       .  S
Cu840       N843   2.081       .  S
Cu841       N851   2.069       .  S
Cu842       N844   2.064       .  S
Cu842       N850   2.065       .  S
N843        N844   1.322       .  A
N843        C847   1.346       .  A
N844        C845   1.344       .  A
C845        C846   1.380   1_545  A
C845        H848   1.082       .  S
C846        C847   1.384   1_565  A
C847        H849   1.082   1_545  S
N850        N851   1.321       .  A
N850        C854   1.343       .  A
N851        C852   1.343       .  A
C852        C853   1.385       .  A
C852        H855   1.082       .  S
C853       C1206   1.476       .  S
C853        C854   1.384       .  A
C854        H856   1.082       .  S
N857        N858   1.322       .  A
N857        C861   1.345       .  A
N857       Cu865   2.068       .  S
N858        C859   1.345       .  A
N858       Cu864   2.078       .  S
C859        C860   1.383       .  A
C859        H862   1.082       .  S
C860        C861   1.381       .  A
C861        H863   1.082       .  S
Cu864       N867   2.078       .  S
Cu865       N875   2.069       .  S
Cu866       N868   2.071       .  S
Cu866       N874   2.071       .  S
N867        N868   1.323       .  A
N867        C871   1.345       .  A
N868        C869   1.345       .  A
C869        C870   1.382   1_545  A
C869        H872   1.082       .  S
C870        C871   1.383   1_565  A
C871        H873   1.082   1_545  S
N874        N875   1.321       .  A
N874        C878   1.344       .  A
N875        C876   1.343       .  A
C876        C877   1.387       .  A
C876        H879   1.081       .  S
C877       C1186   1.483       .  S
C877        C878   1.387       .  A
C878        H880   1.081       .  S
N881        N882   1.322       .  A
N881        C885   1.344       .  A
N881       Cu889   2.062       .  S
N882        C883   1.345       .  A
N882       Cu888   2.077       .  S
C883        C884   1.383       .  A
C883        H886   1.082       .  S
C884        C885   1.380       .  A
C885        H887   1.082       .  S
Cu888       N891   2.078       .  S
Cu889       N899   2.063       .  S
Cu890       N892   2.077       .  S
Cu890       N898   2.077       .  S
N891        N892   1.323       .  A
N891        C895   1.347       .  A
N892        C893   1.345       .  A
C893        C894   1.382   1_545  A
C893        H896   1.082       .  S
C894        C895   1.384   1_565  A
C895        H897   1.082   1_545  S
N898        N899   1.321       .  A
N898        C902   1.345       .  A
N899        C900   1.343       .  A
C900        C901   1.385       .  A
C900        H903   1.081       .  S
C901       C1166   1.482       .  S
C901        C902   1.388       .  A
C902        H904   1.081       .  S
O905       Cu913   2.010       .  S
O905        C915   1.277       .  A
O906       Cu913   2.009   1_455  S
O906        C916   1.277       .  A
O907       Cu913   2.001   1_455  S
O907        C917   1.276       .  A
O908       Cu913   2.002       .  S
O908        C918   1.276       .  A
O909       Cu914   2.013       .  S
O909        C918   1.278       .  A
O910       Cu914   2.013   1_455  S
O910        C917   1.278       .  A
O911       Cu914   2.010   1_455  S
O911        C916   1.277       .  A
O912       Cu914   2.010       .  S
O912        C915   1.277       .  A
Cu913      Cu914   2.378       .  S
C915       C1118   1.466       .  S
C916        C950   1.466       .  S
C917       C1032   1.465       .  S
C918       C1084   1.465       .  S
O919       Cu927   2.007       .  S
O919        C929   1.277       .  A
O920       Cu927   2.009   1_655  S
O920        C930   1.278       .  A
O921       Cu927   2.010   1_655  S
O921        C931   1.278       .  A
O922       Cu927   2.011       .  S
O922        C932   1.278       .  A
O923       Cu928   2.003       .  S
O923        C932   1.276       .  A
O924       Cu928   2.002   1_655  S
O924        C931   1.276       .  A
O925       Cu928   2.014   1_655  S
O925        C930   1.278       .  A
O926       Cu928   2.012       .  S
O926        C929   1.278       .  A
Cu927      Cu928   2.378       .  S
C929        C998   1.466       .  S
C930       C1060   1.468       .  S
C931       C1142   1.463       .  S
C932        C984   1.464       .  S
O933       Cu941   2.009   1_556  S
O933        C943   1.277       .  A
O934        C944   1.277       .  A
O935       Cu941   2.010   1_556  S
O935        C945   1.277       .  A
O936        C946   1.278       .  A
O937       Cu942   2.001       .  S
O937        C946   1.276       .  A
O938        C945   1.276       .  A
O939       Cu942   2.009       .  S
O939        C944   1.277       .  A
O940        C943   1.277       .  A
C943        C974   1.465       .  S
C944       C1022   1.464       .  S
C945        C960   1.463       .  S
C946       C1008   1.464       .  S
N947        N948   1.322       .  A
N947        C951   1.345       .  A
N947       Cu955   2.074       .  S
N948        C949   1.345       .  A
N948       Cu954   2.071       .  S
C949        C950   1.382       .  A
C949        H952   1.082       .  S
C950        C951   1.382       .  A
C951        H953   1.082       .  S
Cu954       N957   2.071       .  S
Cu955       N965   2.074       .  S
Cu956       N958   2.069       .  S
Cu956       N964   2.069       .  S
N957        N958   1.322       .  A
N957        C961   1.345       .  A
N958        C959   1.343       .  A
C959        C960   1.381       .  A
C959        H962   1.082       .  S
C960        C961   1.381       .  A
C961        H963   1.082       .  S
N964        N965   1.321       .  A
N964        C968   1.344       .  A
N965        C966   1.344       .  A
C966        C967   1.387       .  A
C966        H969   1.081       .  S
C967       C1286   1.483       .  S
C967        C968   1.387       .  A
C968        H970   1.081       .  S
N971        N972   1.322       .  A
N971        C975   1.344       .  A
N971       Cu979   2.070       .  S
N972        C973   1.346       .  A
N972       Cu978   2.074       .  S
C973        C974   1.383       .  A
C973        H976   1.082       .  S
C974        C975   1.380       .  A
C975        H977   1.082       .  S
Cu978       N981   2.073       .  S
Cu979       N989   2.070       .  S
Cu980       N982   2.073       .  S
Cu980       N988   2.073       .  S
N981        N982   1.323       .  A
N981        C985   1.344       .  A
N982        C983   1.345       .  A
C983        C984   1.381       .  A
C983        H986   1.082       .  S
C984        C985   1.381       .  A
C985        H987   1.082       .  S
N988        N989   1.322       .  A
N988        C992   1.345       .  A
N989        C990   1.345       .  A
C990        C991   1.383       .  A
C990        H993   1.082       .  S
C991       C1226   1.474       .  S
C991        C992   1.384       .  A
C992        H994   1.082       .  S
N995        N996   1.322       .  A
N995        C999   1.346       .  A
N995      Cu1003   2.074       .  S
N996        C997   1.344       .  A
N996      Cu1002   2.069       .  S
C997        C998   1.381       .  A
C997       H1000   1.082       .  S
C998        C999   1.383       .  A
C999       H1001   1.082       .  S
Cu1002     N1005   2.069       .  S
Cu1003     N1013   2.074       .  S
Cu1004     N1006   2.070       .  S
Cu1004     N1012   2.070       .  S
N1005      N1006   1.322       .  A
N1005      C1009   1.344       .  A
N1006      C1007   1.344       .  A
C1007      C1008   1.382       .  A
C1007      H1010   1.082       .  S
C1008      C1009   1.381       .  A
C1009      H1011   1.082       .  S
N1012      N1013   1.322       .  A
N1012      C1016   1.345       .  A
N1013      C1014   1.343       .  A
C1014      C1015   1.386       .  A
C1014      H1017   1.081       .  S
C1015      C1157   1.480       .  S
C1015      C1016   1.386       .  A
C1016      H1018   1.082       .  S
N1019      N1020   1.322       .  A
N1019      C1023   1.345       .  A
N1019     Cu1027   2.071       .  S
N1020      C1021   1.345       .  A
N1020     Cu1026   2.072       .  S
C1021      C1022   1.381       .  A
C1021      H1024   1.082       .  S
C1022      C1023   1.381       .  A
C1023      H1025   1.082       .  S
Cu1026     N1029   2.072       .  S
Cu1027     N1037   2.071       .  S
Cu1028     N1030   2.072       .  S
Cu1028     N1036   2.072       .  S
N1029      N1030   1.323       .  A
N1029      C1033   1.346       .  A
N1030      C1031   1.344       .  A
C1031      C1032   1.381       .  A
C1031      H1034   1.082       .  S
C1032      C1033   1.382       .  A
C1033      H1035   1.082       .  S
N1036      N1037   1.321       .  A
N1036      C1040   1.345       .  A
N1037      C1038   1.343       .  A
C1038      C1039   1.388       .  A
C1038      H1041   1.081       .  S
C1039      C1237   1.486       .  S
C1039      C1040   1.389       .  A
C1040      H1042   1.081       .  S
O1043      C1053   1.279       .  A
O1044     Cu1051   2.016       .  S
O1044      C1054   1.279       .  A
O1045      C1055   1.276       .  A
O1046     Cu1051   2.004       .  S
O1046      C1056   1.277       .  A
O1047     Cu1052   2.015       .  S
O1047      C1056   1.278       .  A
O1048      C1055   1.278       .  A
O1049     Cu1052   2.009       .  S
O1049      C1054   1.277       .  A
O1050      C1053   1.277       .  A
Cu1051    Cu1052   2.377       .  S
C1053      C1070   1.470       .  S
C1054      C1108   1.468       .  S
C1055      C1094   1.465       .  S
C1056      C1132   1.467       .  S
N1057      N1058   1.323       .  A
N1057      C1061   1.344       .  A
N1057     Cu1065   2.069       .  S
N1058      C1059   1.347       .  A
N1058     Cu1064   2.084       .  S
C1059      C1060   1.384       .  A
C1059      H1062   1.082       .  S
C1060      C1061   1.381       .  A
C1061      H1063   1.082       .  S
Cu1064     N1067   2.085       .  S
Cu1065     N1075   2.069       .  S
Cu1066     N1068   2.070       .  S
Cu1066     N1074   2.070       .  S
N1067      N1068   1.323       .  A
N1067      C1071   1.346       .  A
N1068      C1069   1.346       .  A
C1069      C1070   1.382       .  A
C1069      H1072   1.082       .  S
C1070      C1071   1.384       .  A
C1071      H1073   1.082       .  S
N1074      N1075   1.321       .  A
N1074      C1078   1.342       .  A
N1075      C1076   1.345       .  A
C1076      C1077   1.387       .  A
C1076      H1079   1.081       .  S
C1077      C1197   1.481       .  S
C1077      C1078   1.386       .  A
C1078      H1080   1.081       .  S
N1081      N1082   1.322       .  A
N1081      C1085   1.344       .  A
N1081     Cu1089   2.072       .  S
N1082      C1083   1.345       .  A
N1082     Cu1088   2.066       .  S
C1083      C1084   1.381       .  A
C1083      H1086   1.082       .  S
C1084      C1085   1.382       .  A
C1085      H1087   1.082       .  S
Cu1088     N1091   2.065       .  S
Cu1089     N1099   2.072       .  S
Cu1090     N1092   2.075       .  S
Cu1090     N1098   2.076       .  S
N1091      N1092   1.322       .  A
N1091      C1095   1.344       .  A
N1092      C1093   1.345       .  A
C1093      C1094   1.383       .  A
C1093      H1096   1.082       .  S
C1094      C1095   1.380       .  A
C1095      H1097   1.082       .  S
N1098      N1099   1.322       .  A
N1098      C1102   1.344       .  A
N1099      C1100   1.344       .  A
C1100      C1101   1.387       .  A
C1100      H1103   1.081       .  S
C1101      C1306   1.484       .  S
C1101      C1102   1.388       .  A
C1102      H1104   1.081       .  S
N1105      N1106   1.322       .  A
N1105      C1109   1.345       .  A
N1105     Cu1113   2.071       .  S
N1106      C1107   1.347       .  A
N1106     Cu1112   2.081       .  S
C1107      C1108   1.384       .  A
C1107      H1110   1.082       .  S
C1108      C1109   1.381       .  A
C1109      H1111   1.082       .  S
Cu1112     N1115   2.080       .  S
Cu1113     N1123   2.070       .  S
Cu1114     N1116   2.071       .  S
Cu1114     N1122   2.070       .  S
N1115      N1116   1.323       .  A
N1115      C1119   1.346       .  A
N1116      C1117   1.345       .  A
C1117      C1118   1.381       .  A
C1117      H1120   1.082       .  S
C1118      C1119   1.382       .  A
C1119      H1121   1.082       .  S
N1122      N1123   1.321       .  A
N1122      C1126   1.344       .  A
N1123      C1124   1.343       .  A
C1124      C1125   1.388       .  A
C1124      H1127   1.081       .  S
C1125      C1266   1.485       .  S
C1125      C1126   1.388       .  A
C1126      H1128   1.081       .  S
N1129      N1130   1.323       .  A
N1129      C1133   1.344       .  A
N1129     Cu1137   2.073       .  S
N1130      C1131   1.346       .  A
N1130     Cu1136   2.076       .  S
C1131      C1132   1.383       .  A
C1131      H1134   1.082       .  S
C1132      C1133   1.381       .  A
C1133      H1135   1.082       .  S
Cu1136     N1139   2.076       .  S
Cu1137     N1147   2.073       .  S
Cu1138     N1140   2.063       .  S
Cu1138     N1146   2.063       .  S
N1139      N1140   1.322       .  A
N1139      C1143   1.345       .  A
N1140      C1141   1.344       .  A
C1141      C1142   1.380       .  A
C1141      H1144   1.082       .  S
C1142      C1143   1.382       .  A
C1143      H1145   1.082       .  S
N1146      N1147   1.320       .  A
N1146      C1150   1.343       .  A
N1147      C1148   1.344       .  A
C1148      C1149   1.388       .  A
C1148      H1151   1.081       .  S
C1149      C1177   1.482       .  S
C1149      C1150   1.386       .  A
C1150      H1152   1.081       .  S
C1153      C1154   1.405       .  A
C1153      C1158   1.396       .  A
C1153      H1163   1.083       .  S
C1154      C1159   1.486       .  S
C1154      C1155   1.407       .  A
C1155      C1156   1.398       .  A
C1155      H1160   1.083       .  S
C1156      C1157   1.405       .  A
C1156      H1161   1.082       .  S
C1157      C1158   1.404       .  A
C1158      H1162   1.082       .  S
C1159      C1164   1.406       .  A
C1159      C1168   1.405       .  A
C1164      C1165   1.396       .  A
C1164      H1169   1.083       .  S
C1165      C1166   1.405       .  A
C1165      H1170   1.082       .  S
C1166      C1167   1.406       .  A
C1167      C1168   1.397       .  A
C1167      H1171   1.082       .  S
C1168      H1172   1.083       .  S
C1173      C1174   1.405       .  A
C1173      C1178   1.397       .  A
C1173      H1183   1.083       .  S
C1174      C1179   1.486       .  S
C1174      C1175   1.406       .  A
C1175      C1176   1.396       .  A
C1175      H1180   1.083       .  S
C1176      C1177   1.405       .  A
C1176      H1181   1.082       .  S
C1177      C1178   1.406       .  A
C1178      H1182   1.082       .  S
C1179      C1184   1.406       .  A
C1179      C1188   1.405       .  A
C1184      C1185   1.398       .  A
C1184      H1189   1.083       .  S
C1185      C1186   1.406       .  A
C1185      H1190   1.082       .  S
C1186      C1187   1.405       .  A
C1187      C1188   1.396       .  A
C1187      H1191   1.081       .  S
C1188      H1192   1.083       .  S
C1193      C1194   1.405       .  A
C1193      C1198   1.395       .  A
C1193      H1203   1.083       .  S
C1194      C1199   1.484       .  S
C1194      C1195   1.406       .  A
C1195      C1196   1.398       .  A
C1195      H1200   1.083       .  S
C1196      C1197   1.405       .  A
C1196      H1201   1.082       .  S
C1197      C1198   1.405       .  A
C1198      H1202   1.082       .  S
C1199      C1204   1.406       .  A
C1199      C1208   1.406       .  A
C1204      C1205   1.397       .  A
C1204      H1209   1.083       .  S
C1205      C1206   1.404       .  A
C1205      H1210   1.083       .  S
C1206      C1207   1.403       .  A
C1207      C1208   1.395       .  A
C1207      H1211   1.082       .  S
C1208      H1212   1.083       .  S
C1213      C1214   1.406       .  A
C1213      C1218   1.396       .  A
C1213      H1223   1.083       .  S
C1214      C1219   1.488       .  S
C1214      C1215   1.406       .  A
C1215      C1216   1.399       .  A
C1215      H1220   1.083       .  S
C1216      C1217   1.408       .  A
C1216      H1221   1.081       .  S
C1217      C1218   1.406       .  A
C1218      H1222   1.081       .  S
C1219      C1224   1.408       .  A
C1219      C1228   1.407       .  A
C1224      C1225   1.399       .  A
C1224      H1229   1.083       .  S
C1225      C1226   1.403       .  A
C1225      H1230   1.083       .  S
C1226      C1227   1.401       .  A
C1227      C1228   1.396       .  A
C1227      H1231   1.083       .  S
C1228      H1232   1.083       .  S
C1233      C1234   1.406       .  A
C1233      C1238   1.397       .  A
C1233      H1243   1.082       .  S
C1234      C1239   1.490       .  S
C1234      C1235   1.407       .  A
C1235      C1236   1.398       .  A
C1235      H1240   1.082       .  S
C1236      C1237   1.406       .  A
C1236      H1241   1.081       .  S
C1237      C1238   1.406       .  A
C1238      H1242   1.081       .  S
C1239      C1244   1.408       .  A
C1239      C1248   1.407       .  A
C1244      C1245   1.398       .  A
C1244      H1249   1.082       .  S
C1245      C1246   1.404       .  A
C1245      H1250   1.082       .  S
C1246      C1247   1.405       .  A
C1247      C1248   1.397       .  A
C1247      H1251   1.082       .  S
C1248      H1252   1.082       .  S
C1253      C1254   1.406       .  A
C1253      C1258   1.397       .  A
C1253      H1263   1.083       .  S
C1254      C1259   1.484       .  S
C1254      C1255   1.405       .  A
C1255      C1256   1.395       .  A
C1255      H1260   1.083       .  S
C1256      C1257   1.403       .  A
C1256      H1261   1.083       .  S
C1257      C1258   1.404       .  A
C1258      H1262   1.083       .  S
C1259      C1264   1.404       .  A
C1259      C1268   1.405       .  A
C1264      C1265   1.397       .  A
C1264      H1269   1.083       .  S
C1265      C1266   1.407       .  A
C1265      H1270   1.081       .  S
C1266      C1267   1.406       .  A
C1267      C1268   1.396       .  A
C1267      H1271   1.081       .  S
C1268      H1272   1.083       .  S
C1273      C1274   1.406       .  A
C1273      C1278   1.397       .  A
C1273      H1283   1.083       .  S
C1274      C1279   1.488       .  S
C1274      C1275   1.407       .  A
C1275      C1276   1.397       .  A
C1275      H1280   1.083       .  S
C1276      C1277   1.404       .  A
C1276      H1281   1.082       .  S
C1277      C1278   1.405       .  A
C1278      H1282   1.082       .  S
C1279      C1284   1.406       .  A
C1279      C1288   1.406       .  A
C1284      C1285   1.398       .  A
C1284      H1289   1.083       .  S
C1285      C1286   1.406       .  A
C1285      H1290   1.082       .  S
C1286      C1287   1.405       .  A
C1287      C1288   1.397       .  A
C1287      H1291   1.082       .  S
C1288      H1292   1.083       .  S
C1293      C1294   1.406       .  A
C1293      C1298   1.398       .  A
C1293      H1303   1.083       .  S
C1294      C1299   1.485       .  S
C1294      C1295   1.406       .  A
C1295      C1296   1.397       .  A
C1295      H1300   1.083       .  S
C1296      C1297   1.404       .  A
C1296      H1301   1.083       .  S
C1297      C1298   1.405       .  A
C1298      H1302   1.083       .  S
C1299      C1304   1.405       .  A
C1299      C1308   1.405       .  A
C1304      C1305   1.396       .  A
C1304      H1309   1.083       .  S
C1305      C1306   1.406       .  A
C1305      H1310   1.081       .  S
C1306      C1307   1.407       .  A
C1307      C1308   1.398       .  A
C1307      H1311   1.082       .  S
C1308      H1312   1.083       .  S
