geometry optimzed in LAMMPS
_audit_creation_date              2020-11-30 
_audit_creation_method            'lammps2cif' 
_symmetry_space_group_name_H-M    'P1' 
_symmetry_Int_Tables_number       1 
_symmetry_cell_setting            triclinic 
loop_ 
_symmetry_equiv_pos_as_xyz 
  x,y,z 
_cell_length_a                    33.24963025038064 
_cell_length_b                    30.76240808195314 
_cell_length_c                    53.169065478408726 
_cell_angle_alpha                 88.23123755381948 
_cell_angle_beta                  90.21408337239515 
_cell_angle_gamma                 90.65266451312847 
loop_ 
_atom_site_label 
_atom_site_type_symbol 
_atom_site_fract_x 
_atom_site_fract_y 
_atom_site_fract_z 
_atom_site_charge 
C1          C  0.47645680  0.00472799  0.49289747     0.00120
C2          C  0.01703302  0.51186106  0.49341947     0.00120
C3          C  0.02239779  0.25660606  0.50250959     0.00120
C4          C  0.48167708  0.25451918  0.50080692     0.00120
C5          C  0.34823018  0.43829899  0.43863950     0.42020
N6          N  0.29506312  0.43655325  0.41559512     0.00910
C7          C  0.16875931  0.25857090  0.41027500    -0.06970
H8          H  0.34008662  0.23772270  0.40131114     0.06400
C9          C  0.31242330  0.31321087  0.31681934    -0.07320
Co10       Co  0.24678699  0.35728396  0.42959540     0.74180
N11         N  0.29293518  0.28360932  0.40959118    -0.26500
Co12       Co  0.24814412  0.28646248  0.38113000     0.74070
C13         C  0.32764419  0.26963963  0.32337248     0.42120
N14         N  0.29249351  0.42223173  0.34072536     0.00520
N15         N  0.29124313  0.29219397  0.35348964     0.00630
N16         N  0.17144241  0.30716580  0.44126256    -0.47350
H17         H  0.32612449  0.38034316  0.46283446     0.06390
N18         N  0.28915739  0.31033098  0.42818567     0.00910
N19         N  0.20470969  0.29128773  0.35262682     0.00650
C20         C  0.16481254  0.27139135  0.32295287     0.42260
N21         N  0.29307702  0.44986873  0.35927149    -0.25950
C22         C  0.17437919  0.40531108  0.44671047    -0.06870
N23         N  0.32938929  0.45829483  0.41881745    -0.47060
N24         N  0.18237216  0.25841048  0.34480749    -0.47280
C25         C  0.15424790  0.44575554  0.44105113     0.42030
N26         N  0.20305145  0.31069082  0.42656553     0.00900
N27         N  0.20755501  0.45222050  0.36018350    -0.25980
N28         N  0.29112818  0.40374876  0.43185312    -0.26470
N29         N  0.20555250  0.42563539  0.34111019     0.00540
H30         H  0.18494158  0.51631405  0.36613235     0.06430
H31         H  0.17439715  0.33671057  0.30122758     0.06470
N32         N  0.20268790  0.28287430  0.40826253    -0.26520
N33         N  0.28990975  0.32433798  0.33644950    -0.26130
N34         N  0.20531645  0.43976750  0.41632771     0.00910
C35         C  0.34420208  0.27780834  0.43760376     0.42300
C36         C  0.31727440  0.48347796  0.35263175    -0.07380
N37         N  0.20365426  0.32542887  0.33692019    -0.26130
H38         H  0.31354512  0.33068593  0.29885825     0.06450
N39         N  0.31825283  0.30761137  0.44474171    -0.47350
H40         H  0.31979605  0.51351303  0.36259978     0.06440
C41         C  0.16990896  0.48117146  0.32983674     0.42140
C42         C  0.32201122  0.40358230  0.44766707    -0.06880
Co43       Co  0.25041501  0.44564814  0.38814413     0.73820
N44         N  0.31457522  0.43592132  0.32135123    -0.47070
C45         C  0.14826846  0.27548924  0.43222281     0.42400
N46         N  0.17471550  0.46562803  0.42155812    -0.47060
Co47       Co  0.24760925  0.37458121  0.33849195     0.73890
C48         C  0.17843830  0.31640471  0.31798448    -0.07390
C49         C  0.32763950  0.26136660  0.41365619    -0.06950
N50         N  0.20505312  0.40462550  0.43097896    -0.26480
N51         N  0.31285542  0.25909256  0.34628059    -0.47240
H52         H  0.15894401  0.23398359  0.39743672     0.06410
C53         C  0.18552736  0.48750201  0.35499691    -0.07360
Cl54       Cl  0.24809548  0.36614618  0.38399676    -0.50360
C55         C  0.33155833  0.47428618  0.32734970     0.42170
H56         H  0.16752711  0.37937139  0.45992309     0.06380
N57         N  0.18363936  0.44230121  0.32232600    -0.47070
C58         C  0.34137575  0.06014710  0.55357889     0.42020
N59         N  0.29054532  0.06480919  0.57870610     0.00910
C60         C  0.17307782  0.24662429  0.59088813    -0.06970
H61         H  0.34213970  0.26080535  0.60315977     0.06400
C62         C  0.31632517  0.18290915  0.68170183    -0.07320
Co63       Co  0.24631848  0.14763682  0.56754661     0.74180
N64         N  0.29454065  0.21851672  0.59039772    -0.26500
Co65       Co  0.25098074  0.21450387  0.61848342     0.74070
C66         C  0.33012775  0.22777338  0.67704002     0.42120
N67         N  0.29255999  0.07540318  0.65423685     0.00520
N68         N  0.29486189  0.20707414  0.64563927     0.00630
N69         N  0.17209825  0.20152918  0.55808530    -0.47350
H70         H  0.32426830  0.12364240  0.53261552     0.06390
N71         N  0.29099296  0.19393012  0.57071086     0.00910
N72         N  0.20887438  0.20881127  0.64717668     0.00650
C73         C  0.17494503  0.22929435  0.67899087     0.42260
N74         N  0.28994105  0.04820296  0.63546799    -0.25950
C75         C  0.16997476  0.10231093  0.54991872    -0.06870
N76         N  0.32197894  0.04003943  0.57335937    -0.47060
N77         N  0.18944380  0.24212534  0.65629106    -0.47280
C78         C  0.14573919  0.06443195  0.55718938     0.42030
N79         N  0.20413694  0.19523909  0.57233845     0.00900
N80         N  0.20511145  0.04946847  0.63676944    -0.25980
N81         N  0.28877341  0.09969895  0.56372883    -0.26470
N82         N  0.20624965  0.07606912  0.65583527     0.00540
H83         H  0.18172995  0.98468427  0.63279603     0.06430
H84         H  0.18571217  0.16400011  0.70024704     0.06470
N85         N  0.20552099  0.22091148  0.59169911    -0.26520
N86         N  0.29434276  0.17309938  0.66139090    -0.26130
N87         N  0.19967477  0.06641627  0.58019768     0.00910
C88         C  0.34824677  0.22581862  0.56540954     0.42300
C89         C  0.30943482  0.01154284  0.64220061    -0.07380
N90         N  0.20875976  0.17446984  0.66271527    -0.26130
H91         H  0.31649375  0.16414734  0.69924894     0.06450
N92         N  0.32183456  0.19769808  0.55546041    -0.47350
H93         H  0.30743137  0.98137598  0.63232748     0.06440
C94         C  0.17350801  0.01960484  0.67019805     0.42140
C95         C  0.31871921  0.09907821  0.54715999    -0.06880
Co96       Co  0.24623794  0.05625475  0.60734298     0.73820
N97         N  0.31256183  0.05869160  0.67366901    -0.47070
C98         C  0.15128031  0.23350628  0.56845795     0.42400
N99         N  0.16626132  0.04319678  0.57605699    -0.47060
Co100      Co  0.25042710  0.12453543  0.65845776     0.73890
C101        C  0.18741955  0.18401573  0.68319754    -0.07390
C102        C  0.33003827  0.24013583  0.58886684    -0.06950
N103        N  0.20165148  0.10132277  0.56526786    -0.26480
N104        N  0.31520504  0.24037471  0.65447992    -0.47240
H105        H  0.16508602  0.27003268  0.60472781     0.06410
C106        C  0.18410481  0.01354182  0.64377528    -0.07360
Cl107      Cl  0.24844032  0.13557118  0.61310617    -0.50360
C108        C  0.32387186  0.01832757  0.66784385     0.42170
H109        H  0.16468522  0.12737305  0.53567981     0.06380
N110        N  0.18787356  0.05932055  0.67590481    -0.47070
C111        C  0.25748335  0.00199643  0.99855060     0.00120
C112        C  0.21588076  0.00261114  0.99815814     0.00120
C113        C  0.21788880  0.25187626  0.99858943     0.00120
C114        C  0.25890148  0.24670488  0.00021088     0.00120
C115        C  0.37990625  0.03761750  0.92830073     0.42020
N116        N  0.43776306  0.04311425  0.91108092     0.00910
C117        C  0.06546633  0.22021063  0.91712346    -0.06970
H118        H  0.40352254  0.25299577  0.90124130     0.06400
C119        C  0.42122981  0.18679596  0.81889943    -0.07320
Co120      Co  0.48328331  0.11932749  0.92983457     0.74180
N121        N  0.44317908  0.19945109  0.91042495    -0.26500
Co122      Co  0.48947120  0.19981406  0.88336330     0.74070
C123        C  0.40579033  0.22823035  0.82773213     0.42120
N124        N  0.44267604  0.07280691  0.83783699     0.00520
N125        N  0.44724102  0.20141233  0.85485995     0.00630
N126        N  0.05732018  0.16763297  0.94718539    -0.47350
H127        H  0.39323276  0.09294427  0.95488164     0.06390
N128        N  0.44149793  0.16838295  0.92800823     0.00910
N129        N  0.03418277  0.19879209  0.85558956     0.00650
C130        C  0.07549308  0.22333765  0.82709316     0.42260
N131        N  0.44180495  0.04252485  0.85597365    -0.25950
C132        C  0.05726433  0.06624485  0.94640529    -0.06870
N133        N  0.40381841  0.01995831  0.91099100    -0.47060
N134        N  0.05833601  0.23201351  0.84937983    -0.47280
C135        C  0.08139626  0.03200939  0.93608875     0.42030
N136        N  0.02857402  0.16587776  0.93016903     0.00900
N137        N  0.02791130  0.03948604  0.85751527    -0.25980
N138        N  0.43755206  0.07368304  0.92788346    -0.26470
N139        N  0.02942240  0.06857613  0.83870728     0.00540
H140        H  0.05056067  0.97464692  0.86257413     0.06430
H141        H  0.06081356  0.16597156  0.80175173     0.06470
N142        N  0.03226884  0.19626465  0.91230052    -0.26520
N143        N  0.44661986  0.17243336  0.83701470    -0.26130
N144        N  0.02794749  0.04090182  0.91356928     0.00910
C145        C  0.38916369  0.20624558  0.93502062     0.42300
C146        C  0.41574590  0.01117955  0.84971208    -0.07380
N147        N  0.03326571  0.16891327  0.83820331    -0.26130
H148        H  0.41692687  0.17223081  0.80081094     0.06450
N149        N  0.41007287  0.17130907  0.94296019    -0.47350
H150        H  0.41200729  0.98030675  0.85975791     0.06440
C151        C  0.06573854  0.01499536  0.82694210     0.42140
C152        C  0.40252754  0.07191029  0.94013306    -0.06880
Co153      Co  0.48407411  0.04073282  0.88485045     0.73820
N154        N  0.41951455  0.06234704  0.81855734    -0.47070
C155        C  0.08184293  0.20099858  0.94060125     0.42400
N156        N  0.06136392  0.01740853  0.91566161    -0.47060
Co157      Co  0.48806512  0.12075962  0.83750510     0.73890
C158        C  0.05858655  0.18137050  0.81970877    -0.07390
C159        C  0.41113031  0.22535559  0.91330427    -0.06950
N160        N  0.02576759  0.07040078  0.93095262    -0.26480
N161        N  0.42401912  0.23513984  0.84985010    -0.47240
H162        H  0.07653875  0.24746804  0.90572544     0.06410
C163        C  0.05035765  0.00526839  0.85202827    -0.07360
Cl164      Cl  0.48648311  0.12022163  0.88373451    -0.50360
C165        C  0.40079130  0.02417635  0.82485054     0.42170
H166        H  0.06417157  0.08687892  0.96195609     0.06380
N167        N  0.05075926  0.05432693  0.81958906    -0.47070
C168        C  0.12679808  0.35429325  0.75261331     0.00120
C169        C  0.13073563  0.39933688  0.75386270     0.00120
C170        C  0.35452779  0.35387639  0.75422877     0.00120
C171        C  0.35935746  0.39783870  0.75018889     0.00120
C172        C  0.11397806  0.14509405  0.25006591     0.00120
C173        C  0.11520199  0.10032172  0.25064980     0.00120
C174        C  0.36132242  0.14584341  0.24825253     0.00120
C175        C  0.36387940  0.10145123  0.24780470     0.00120
C176        C  0.38442742  0.46334787  0.06574504     0.42020
N177        N  0.44072217  0.45740110  0.08517883     0.00910
C178        C  0.06863069  0.28234175  0.08727456    -0.06970
H179        H  0.40535027  0.24499858  0.09828972     0.06400
C180        C  0.41476730  0.32125054  0.17866903    -0.07320
Co181      Co  0.48627367  0.38001844  0.06930600     0.74180
N182        N  0.44483745  0.29933960  0.08883720    -0.26500
Co183      Co  0.48826395  0.30158398  0.11727657     0.74070
C184        C  0.40020826  0.27782911  0.17196325     0.42120
N185        N  0.44089781  0.43274554  0.15882628     0.00520
N186        N  0.44319619  0.30176600  0.14448393     0.00630
N187        N  0.06417894  0.33446403  0.05676882    -0.47350
H188        H  0.39709586  0.40481277  0.04141659     0.06390
N189        N  0.44420766  0.32928714  0.07064035     0.00910
N190        N  0.02978343  0.30369625  0.14651196     0.00650
C191        C  0.06531375  0.27860012  0.17757088     0.42260
N192        N  0.44240982  0.46164155  0.14004285    -0.25950
C193        C  0.05791756  0.43801455  0.05161183    -0.06870
N194        N  0.40780157  0.48138446  0.08351902    -0.47060
N195        N  0.05111420  0.26984473  0.15445874    -0.47280
C196        C  0.07944568  0.47632628  0.06040704     0.42030
N197        N  0.03263328  0.33488951  0.07173899     0.00900
N198        N  0.02901955  0.46266316  0.14155183    -0.25980
N199        N  0.44039020  0.42535949  0.06920773    -0.26470
N200        N  0.02872723  0.43297754  0.16006043     0.00540
H201        H  0.05863961  0.52504944  0.13722231     0.06430
H202        H  0.05222496  0.33892991  0.20074846     0.06470
N203        N  0.03427706  0.30488094  0.08996073    -0.26520
N204        N  0.44155075  0.33308279  0.16092991    -0.26130
N205        N  0.02980803  0.46111253  0.08496870     0.00910
C206        C  0.39282293  0.28838130  0.06297818     0.42300
C207        C  0.41703579  0.49383573  0.14432583    -0.07380
N208        N  0.02808332  0.33434900  0.16333055    -0.26130
H209        H  0.41005697  0.33821637  0.19592157     0.06450
N210        N  0.41369231  0.32405437  0.05493773    -0.47350
H211        H  0.41501049  0.52376573  0.13320303     0.06440
C212        C  0.07127190  0.48170733  0.17231178     0.42140
C213        C  0.40618054  0.42694841  0.05583014    -0.06880
Co214      Co  0.48586413  0.46141062  0.11271817     0.73820
N215        N  0.41626804  0.44514496  0.17681878    -0.47070
C216        C  0.08895283  0.30255427  0.06507155     0.42400
N217        N  0.06050039  0.48879088  0.08143889    -0.47060
Co218      Co  0.48468654  0.38344478  0.16117737     0.73890
C219        C  0.05064599  0.32204444  0.18322824    -0.07390
C220        C  0.41344130  0.27190829  0.08569339    -0.06950
N221        N  0.02829267  0.43073634  0.06806063    -0.26480
N222        N  0.41958119  0.26817691  0.15062143    -0.47240
H223        H  0.07793752  0.25571872  0.09955612     0.06410
C224        C  0.05499532  0.49443202  0.14754672    -0.07360
Cl225      Cl  0.48651764  0.38153362  0.11529310    -0.50360
C226        C  0.39943922  0.48318193  0.16869197     0.42170
H227        H  0.06462576  0.41794733  0.03583711     0.06380
N228        N  0.05276043  0.44363416  0.17891637    -0.47070
C229        C  0.41106747  0.05378633  0.18903416    -0.09600
C230        C  0.38651239  0.51692585  0.18599031     0.06600
C231        C  0.35163041  0.51225018  0.20040495    -0.03360
C232        C  0.34312517  0.04291061  0.21844227    -0.07810
C233        C  0.37081021  0.07646816  0.22431057     0.05720
C234        C  0.40553324  0.08137922  0.20914866    -0.02840
Br235      Br  0.44994115  0.11932438  0.21656298    -0.02530
H236        H  0.43693419  0.05902370  0.17699451     0.09630
H237        H  0.31518846  0.03890237  0.22844691     0.07650
Br238      Br  0.31455218  0.46494087  0.19582957    -0.02960
C239        C  0.35475809  0.17552024  0.20337965    -0.09600
C240        C  0.37406279  0.17591048  0.22699792     0.06600
C241        C  0.40251534  0.20928977  0.23157185    -0.03360
C242        C  0.40866526  0.24281159  0.21386318    -0.07810
C243        C  0.38888090  0.24325984  0.19062937     0.05720
C244        C  0.36243759  0.20864325  0.18510526    -0.02840
Br245      Br  0.33479279  0.20664175  0.15345719    -0.02530
H246        H  0.33278480  0.15035661  0.19947513     0.09630
H247        H  0.43029401  0.26806602  0.21802843     0.07650
Br248      Br  0.43742783  0.20893194  0.26046639    -0.02960
C249        C  0.06570244  0.07073871  0.21982710    -0.09600
C250        C  0.10575868  0.07476782  0.22776311     0.06600
C251        C  0.13505544  0.04817539  0.21672373    -0.03360
C252        C  0.12400340  0.51943972  0.19776851    -0.07810
C253        C  0.08352468  0.51361125  0.19126848     0.05720
C254        C  0.05437140  0.03786816  0.20352528    -0.02840
Br255      Br  0.49945479  0.01981038  0.20307183    -0.02530
H256        H  0.04259459  0.08911950  0.22893387     0.09630
H257        H  0.14676980  0.50011462  0.18901639     0.07650
Br258      Br  0.19039847  0.04879442  0.22723328    -0.02960
C259        C  0.10695125  0.21436510  0.18929741    -0.09600
C260        C  0.07641809  0.24305947  0.19576258     0.06600
C261        C  0.05553190  0.23506758  0.21855375    -0.03360
C262        C  0.06523992  0.19913720  0.23403944    -0.07810
C263        C  0.09740764  0.17189179  0.22845804     0.05720
C264        C  0.11859027  0.18014022  0.20575518    -0.02840
Br265      Br  0.16667888  0.15030317  0.19751442    -0.02530
H266        H  0.12331638  0.22003784  0.17189212     0.09630
H267        H  0.04939359  0.19431517  0.25170459     0.07650
Br268      Br  0.01445198  0.27221170  0.23055750    -0.02960
C269        C  0.05993744  0.47541522  0.78666001    -0.09600
C270        C  0.08003268  0.98146534  0.80969485     0.06600
C271        C  0.11333818  0.95508784  0.81584767    -0.03760
C272        C  0.12752428  0.42542948  0.79837380    -0.07810
C273        C  0.10902874  0.42130124  0.77469040     0.05720
C274        C  0.07384494  0.44534156  0.76948005    -0.02840
Br275      Br  0.04671939  0.44209959  0.73780962    -0.02530
H276        H  0.03384139  0.49476830  0.78184357     0.09630
H277        H  0.15549606  0.40910542  0.80243475     0.07650
Br278      Br  0.14303463  0.96168642  0.84654013    -0.02960
C279        C  0.13223753  0.31921668  0.79603904    -0.09600
C280        C  0.10942885  0.32662027  0.77392051     0.06600
C281        C  0.07550228  0.29951469  0.76998873    -0.03360
C282        C  0.06656619  0.26505985  0.78685041    -0.07810
C283        C  0.08862563  0.25848208  0.80909223     0.05720
C284        C  0.12110196  0.28675553  0.81400098    -0.02840
Br285      Br  0.15259927  0.28023504  0.84412658    -0.02530
H286        H  0.15993714  0.33715194  0.79883131     0.09630
H287        H  0.04115083  0.24400652  0.78288140     0.07650
Br288      Br  0.03916342  0.30780139  0.74233021    -0.02960
C289        C  0.34768578  0.43115423  0.79223286    -0.09600
C290        C  0.37215828  0.42693932  0.77092482     0.06600
C291        C  0.40537452  0.45547598  0.76765617    -0.03360
C292        C  0.41320772  0.98771189  0.78496067    -0.07810
C293        C  0.38872389  0.99216697  0.80604092     0.05720
C294        C  0.35595270  0.46325432  0.80982866    -0.02840
Br295      Br  0.32058363  0.46806073  0.83799311    -0.02530
H296        H  0.32137463  0.41043036  0.79472824     0.09630
H297        H  0.43923227  0.00881340  0.78217873     0.07650
Br298      Br  0.44178994  0.45204110  0.74013335    -0.02960
C299        C  0.35083618  0.27083820  0.80749122    -0.09600
C300        C  0.39198547  0.26492032  0.81166592     0.06600
C301        C  0.41963447  0.29554966  0.80134743    -0.03360
C302        C  0.40634541  0.32876911  0.78495449    -0.07810
C303        C  0.36549987  0.33199263  0.77865245     0.05720
C304        C  0.33744498  0.30446477  0.79132178    -0.02840
Br305      Br  0.28065956  0.31123340  0.78676549    -0.02530
H306        H  0.32917591  0.24888242  0.81644771     0.09630
H307        H  0.42828185  0.34959518  0.77536865     0.07650
Br308      Br  0.47607852  0.29186882  0.80789101    -0.02960
C309        C  0.13004306  0.31085365  0.02677190    -0.09600
C310        C  0.12649026  0.29176356  0.05092873     0.06600
C311        C  0.15806840  0.26431355  0.05951820    -0.03360
C312        C  0.19041329  0.25487085  0.04330399    -0.07810
C313        C  0.19224800  0.27238069  0.01846215     0.05720
C314        C  0.16144681  0.30139367  0.01074855    -0.02840
Br315      Br  0.15718498  0.32800194  0.97775470    -0.02530
H316        H  0.10705774  0.33255673  0.01950888     0.09630
H317        H  0.21270980  0.23157305  0.04961705     0.07650
Br318      Br  0.15931565  0.23849680  0.09273259    -0.02960
C319        C  0.30620704  0.22285503  0.03454970    -0.09600
C320        C  0.28370545  0.25650888  0.02296717     0.06600
C321        C  0.29495951  0.29938545  0.02770079    -0.03360
C322        C  0.32935414  0.30874303  0.04169768    -0.07810
C323        C  0.35335697  0.27553090  0.05200160     0.05720
C324        C  0.34062902  0.23195083  0.04912662    -0.02840
Br325      Br  0.37169843  0.18361355  0.06137323    -0.02530
H326        H  0.29885790  0.18936525  0.03057915     0.09630
H327        H  0.33862207  0.34237017  0.04329966     0.07650
Br328      Br  0.26811849  0.34599745  0.01171936    -0.02960
C329        C  0.16390383  0.20021527  0.99019070    -0.09600
C330        C  0.19262453  0.22895746  0.97958609     0.06600
C331        C  0.18751601  0.24305947  0.95414959    -0.03360
C332        C  0.15138830  0.23327192  0.94157499    -0.07810
C333        C  0.12018008  0.20999183  0.95389290     0.05720
C334        C  0.12731865  0.19262282  0.97843135    -0.02840
Br335      Br  0.08781386  0.16213830  0.99883398    -0.02530
H336        H  0.16784011  0.18797746  0.00937948     0.09630
H337        H  0.14715908  0.24537097  0.92241726     0.07650
Br338      Br  0.22471761  0.28097617  0.93653022    -0.02960
C339        C  0.32437565  0.18538557  0.95563517    -0.09600
C340        C  0.35080211  0.21863607  0.94687701     0.06600
C341        C  0.34210103  0.26189555  0.95243796    -0.03360
C342        C  0.30964208  0.27057203  0.96809023    -0.07810
C343        C  0.28440215  0.23712142  0.97796699     0.05720
C344        C  0.29075166  0.19454539  0.97036588    -0.02840
Br345      Br  0.25491764  0.14828305  0.98038934    -0.02530
H346        H  0.33069979  0.15190069  0.95173489     0.09630
H347        H  0.30519369  0.30373815  0.97331874     0.07650
Br348      Br  0.37612697  0.31001468  0.94227117    -0.02960
C349        C  0.14524830  0.45281023  0.04715103    -0.09600
C350        C  0.12108935  0.48777575  0.05261442     0.06600
C351        C  0.13412738  0.52994463  0.04504112    -0.03360
C352        C  0.16897879  0.53536183  0.02992868    -0.07810
C353        C  0.18990059  0.49889157  0.02133481     0.05720
C354        C  0.17680281  0.45773193  0.03041383    -0.02840
Br355      Br  0.19181598  0.40567049  0.01618606    -0.02530
H356        H  0.13594977  0.42013939  0.05301717     0.09630
H357        H  0.17736281  0.06764385  0.02304846     0.07650
Br358      Br  0.10298015  0.57979535  0.05250589    -0.02960
C359        C  0.27887065  0.46645778  0.04006419    -0.09600
C360        C  0.28211627  0.50165112  0.02256118     0.06600
C361        C  0.31601135  0.52991825  0.02496020    -0.03360
C362        C  0.34746955  0.51923627  0.04141962    -0.07810
C363        C  0.34631908  0.48069694  0.05579489     0.05720
C364        C  0.31072474  0.45565633  0.05637534    -0.02840
Br365      Br  0.30556207  0.40479789  0.07793245    -0.02530
H366        H  0.25401102  0.44409483  0.03936672     0.09630
H367        H  0.37451920  0.53924311  0.04131675     0.07650
Br368      Br  0.32451404  0.08156475  0.00485694    -0.02960
C369        C  0.17850663  0.05192137  0.96886048    -0.09600
C370        C  0.19193270  0.00981064  0.97443819     0.06600
C371        C  0.17579992  0.97558705  0.96016586    -0.03360
C372        C  0.13990988  0.98199440  0.94629165    -0.07810
C373        C  0.12391119  0.02388894  0.94351356     0.05720
C374        C  0.14760705  0.05891390  0.95155885    -0.02840
Br375      Br  0.14370040  0.11484868  0.93552205    -0.02530
H376        H  0.19251866  0.07947455  0.97767039     0.09630
H377        H  0.12489585  0.95470949  0.93775672     0.07650
Br378      Br  0.20576506  0.42407507  0.95479943    -0.02960
C379        C  0.27771125  0.03668569  0.95654763    -0.09600
C380        C  0.28199457  0.00247618  0.97460414     0.06600
C381        C  0.31507366  0.97405372  0.97174006    -0.03360
C382        C  0.34408711  0.98262046  0.95339638    -0.07810
C383        C  0.34192966  0.01965331  0.93795477     0.05720
C384        C  0.30728638  0.04523767  0.93832220    -0.02840
Br385      Br  0.30074217  0.09375260  0.91521898    -0.02530
H386        H  0.25394579  0.05983659  0.95800682     0.09630
H387        H  0.37087444  0.46286656  0.95308493     0.07650
Br388      Br  0.32749384  0.42597877  0.99358977    -0.02960
C389        C  0.15047097  0.00282932  0.71318449    -0.09600
C390        C  0.16457272  0.98668469  0.69063507     0.06600
C391        C  0.17693593  0.44271640  0.69080184    -0.03360
C392        C  0.16981193  0.41541483  0.71208753    -0.07810
C393        C  0.15038495  0.43015250  0.73379191     0.05720
C394        C  0.14814275  0.47634470  0.73514717    -0.02840
Br395      Br  0.15307007  0.00930640  0.76495016    -0.02530
H396        H  0.14569037  0.03745109  0.71466843     0.09630
H397        H  0.18148560  0.38319883  0.71143348     0.07650
Br398      Br  0.20684434  0.41781872  0.66412552    -0.02960
C399        C  0.13521411  0.29301584  0.69107251    -0.09600
C400        C  0.16351500  0.26129172  0.69794379     0.06600
C401        C  0.18279458  0.26387675  0.72157850    -0.03360
C402        C  0.17168903  0.29598778  0.73821325    -0.07810
C403        C  0.14191980  0.32663182  0.73193574     0.05720
C404        C  0.12413617  0.32530908  0.70767520    -0.02840
Br405      Br  0.08581225  0.36700156  0.69530747    -0.02530
H406        H  0.12141810  0.29255840  0.67257869     0.09630
H407        H  0.18632051  0.29684850  0.75643663     0.07650
Br408      Br  0.22642704  0.22699700  0.73191684    -0.02960
C409        C  0.35687741  0.45016994  0.68365991    -0.09600
C410        C  0.32946954  0.98359804  0.68746567     0.06600
C411        C  0.30801863  0.98366327  0.71037589    -0.03360
C412        C  0.31693310  0.45339891  0.72950286    -0.07810
C413        C  0.34646758  0.42177207  0.72659073     0.05720
C414        C  0.36567651  0.41930266  0.70292358    -0.02840
Br415      Br  0.40676272  0.37804152  0.69612675    -0.02530
H416        H  0.37293616  0.94912558  0.66595126     0.09630
H417        H  0.30106691  0.45509604  0.74721800     0.07650
Br418      Br  0.26527556  0.02312414  0.71726556    -0.02960
C419        C  0.30702255  0.29160374  0.70018551    -0.09600
C420        C  0.33611414  0.25946664  0.69682842     0.06600
C421        C  0.36990147  0.25798786  0.71250678    -0.03360
C422        C  0.37553171  0.28993825  0.73021467    -0.07810
C423        C  0.34690357  0.32284041  0.73359516     0.05720
C424        C  0.31152968  0.32240077  0.71885994    -0.02840
Br425      Br  0.26676944  0.35941691  0.72471459    -0.02530
H426        H  0.27992472  0.29176847  0.68878815     0.09630
H427        H  0.40273559  0.28889592  0.74140297     0.07650
Br428      Br  0.40929645  0.21324395  0.71026009    -0.02960
C429        C  0.11819021  0.50747007  0.30006221    -0.09600
C430        C  0.15455733  0.51534915  0.31226192     0.06600
C431        C  0.17547542  0.05485366  0.30679915    -0.03360
C432        C  0.16251531  0.08229879  0.28687548    -0.07810
C433        C  0.12652178  0.07368234  0.27384932     0.05720
C434        C  0.10304315  0.03709752  0.28211000    -0.02840
Br435      Br  0.04824210  0.02713114  0.27241177    -0.02530
H436        H  0.10070747  0.47860783  0.30516948     0.09630
H437        H  0.18114322  0.10999632  0.28134655     0.07650
Br438      Br  0.22197397  0.07340208  0.32535240    -0.02960
C439        C  0.12231442  0.20785342  0.31111367    -0.09600
C440        C  0.15156364  0.23935436  0.30419639     0.06600
C441        C  0.16975299  0.23702761  0.28030610    -0.03360
C442        C  0.15935839  0.20338109  0.26445376    -0.07810
C443        C  0.12920097  0.17276709  0.27084602     0.05720
C444        C  0.10999860  0.17572726  0.29436870    -0.02840
Br445      Br  0.06456715  0.13993079  0.30364440    -0.02530
H446        H  0.10790297  0.20924685  0.32931286     0.09630
H447        H  0.17374475  0.20236689  0.24624075     0.07650
Br448      Br  0.20856064  0.27840079  0.26731839    -0.02960
C449        C  0.37817690  0.02695944  0.30562397    -0.09600
C450        C  0.33959308  0.50858411  0.30795803     0.06600
C451        C  0.30884935  0.02330881  0.29151926    -0.03360
C452        C  0.31610886  0.05831096  0.27479280    -0.07810
C453        C  0.35528478  0.07416084  0.27088631     0.05720
C454        C  0.38662676  0.05798353  0.28641923    -0.02840
Br455      Br  0.44153268  0.07592993  0.28155044    -0.02530
H456        H  0.40221646  0.51545318  0.31783830     0.09630
H457        H  0.29176877  0.07025877  0.26296884     0.07650
Br458      Br  0.25842415  0.49311967  0.28820107    -0.02960
C459        C  0.31072423  0.23299166  0.28391002    -0.09600
C460        C  0.33508002  0.23520219  0.30536378     0.06600
C461        C  0.36235452  0.20148601  0.31068736    -0.03360
C462        C  0.36755371  0.16863328  0.29334000    -0.07810
C463        C  0.34578621  0.16889488  0.27058323     0.05720
C464        C  0.31493335  0.19953846  0.26705480    -0.02840
Br465      Br  0.27732940  0.19657834  0.23965462    -0.02530
H466        H  0.28798035  0.25715070  0.28039726     0.09630
H467        H  0.39138013  0.14566544  0.29662246     0.07650
Br468      Br  0.39582349  0.20132252  0.34016142    -0.02960
C469        C  0.07027589  0.29018308  0.53212881    -0.09600
C470        C  0.04489158  0.25447407  0.52698844     0.06600
C471        C  0.04976764  0.21557507  0.54161486    -0.03360
C472        C  0.08302115  0.21103106  0.55743039    -0.07810
C473        C  0.11087211  0.24489267  0.55984519     0.05720
C474        C  0.10296289  0.28564975  0.54863953    -0.02840
Br475      Br  0.13917581  0.33371847  0.55289089    -0.02530
H476        H  0.06675341  0.32064033  0.52164062     0.09630
H477        H  0.08872370  0.17973930  0.56662930     0.07650
Br478      Br  0.01538350  0.16571352  0.54071765    -0.02960
C479        C  0.44966070  0.27150676  0.54240136    -0.09600
C480        C  0.45650330  0.24220288  0.52307181     0.06600
C481        C  0.43166167  0.20542815  0.52140597    -0.03360
C482        C  0.39977900  0.19911017  0.53758624    -0.07810
C483        C  0.38919649  0.23073271  0.55471784     0.05720
C484        C  0.41571308  0.26638911  0.55807168    -0.02840
Br485      Br  0.40571295  0.31096633  0.58150085    -0.02530
H486        H  0.46832267  0.30044279  0.54364887     0.09630
H487        H  0.38146279  0.17024655  0.53526159     0.07650
Br488      Br  0.43801153  0.16386485  0.49602731    -0.02960
C489        C  0.07359676  0.22440966  0.47572076    -0.09600
C490        C  0.04844159  0.25978086  0.48000349     0.06600
C491        C  0.05303488  0.29818742  0.46520209    -0.03360
C492        C  0.08320634  0.30071024  0.44696803    -0.07810
C493        C  0.10899819  0.26554264  0.44329431     0.05720
C494        C  0.10304875  0.22658797  0.45714913    -0.02840
Br495      Br  0.13802578  0.17791405  0.45398363    -0.02530
H496        H  0.07168848  0.19575715  0.48787239     0.09630
H497        H  0.08879742  0.33152276  0.43708470     0.07650
Br498      Br  0.02358105  0.34991391  0.47157417    -0.02960
C499        C  0.41590098  0.25043687  0.44144469    -0.09600
C500        C  0.38345552  0.27364831  0.45099682     0.06600
C501        C  0.38953312  0.29595583  0.47366453    -0.03360
C502        C  0.42744826  0.29872067  0.48419362    -0.07810
C503        C  0.45708056  0.26899573  0.47817090     0.05720
C504        C  0.45199935  0.24603591  0.45546258    -0.02840
Br505      Br  0.49054523  0.20632090  0.44301153    -0.02530
H506        H  0.41230579  0.23344287  0.42402668     0.09630
H507        H  0.43078737  0.31744729  0.50098735     0.07650
Br508      Br  0.34729224  0.31338870  0.49589223    -0.02960
C509        C  0.05111369  0.00303435  0.53543549    -0.09600
C510        C  0.03813670  0.03089308  0.51550484     0.06600
C511        C  0.05611873  0.07202360  0.51295796    -0.03360
C512        C  0.08893474  0.08312166  0.52802670    -0.07810
C513        C  0.10586322  0.05311521  0.54561192     0.05720
C514        C  0.08507682  0.01331702  0.55010977    -0.02840
Br515      Br  0.10297240  0.97003355  0.57423645    -0.02530
H516        H  0.03709492  0.47135480  0.53816892     0.09630
H517        H  0.10201534  0.11507894  0.52487972     0.07650
Br518      Br  0.03824436  0.11311851  0.48789036    -0.02960
C519        C  0.38228480  0.06126869  0.51464176    -0.09600
C520        C  0.37808737  0.04623280  0.53971696     0.06600
C521        C  0.40965884  0.02131833  0.55040486    -0.03360
C522        C  0.44375885  0.01159645  0.53582084    -0.07810
C523        C  0.44691868  0.02544246  0.51030961     0.05720
C524        C  0.41557507  0.05126721  0.50010075    -0.02840
Br525      Br  0.41496922  0.07399236  0.46601843    -0.02530
H526        H  0.35881422  0.08037179  0.50572502     0.09630
H527        H  0.46671444  0.99104389  0.54411343     0.07650
Br528      Br  0.40781317  0.99949783  0.58454795    -0.02960
C529        C  0.09461603  0.49428110  0.44164039    -0.09600
C530        C  0.11672640  0.46065859  0.45319857     0.06600
C531        C  0.10161022  0.44141615  0.47595830    -0.03360
C532        C  0.06477985  0.45403995  0.48536133    -0.07810
C533        C  0.04497684  0.49052971  0.47557500     0.05720
C534        C  0.05987525  0.01036025  0.45287029    -0.02840
Br535      Br  0.03628190  0.05940515  0.43560277    -0.02530
H536        H  0.10524225  0.00934783  0.42416771     0.09630
H537        H  0.05376214  0.43795649  0.50239333     0.07650
Br538      Br  0.13105064  0.40488734  0.49919484    -0.02960
C539        C  0.45149366  0.48804215  0.44975782    -0.09600
C540        C  0.45765753  0.47439770  0.47488044     0.06600
C541        C  0.43474433  0.43924058  0.48446292    -0.03360
C542        C  0.40036934  0.42631339  0.47163273    -0.07810
C543        C  0.38909676  0.44689690  0.44863759     0.05720
C544        C  0.41704965  0.47521096  0.43661916    -0.02840
Br545      Br  0.40881029  0.00068762  0.40354054    -0.02530
H546        H  0.46947679  0.01390785  0.44150247     0.09630
H547        H  0.38153030  0.40193944  0.48079317     0.07650
Br548      Br  0.44746609  0.41038315  0.51596724    -0.02960
C549        C  0.47644118  0.50467397  0.49296092     0.00120
C550        C  0.01702917  0.01185465  0.49340779     0.00120
C551        C  0.02241139  0.75659101  0.50253183     0.00120
C552        C  0.48170675  0.75455880  0.50076919     0.00120
C553        C  0.34824043  0.93831455  0.43860971     0.42020
N554        N  0.29505944  0.93656332  0.41557962     0.00910
C555        C  0.16876278  0.75857188  0.41028563    -0.06970
H556        H  0.34010626  0.73776033  0.40129541     0.06400
C557        C  0.31240890  0.81320583  0.31681371    -0.07320
Co558      Co  0.24679181  0.85729427  0.42959227     0.74180
N559        N  0.29294043  0.78362302  0.40958672    -0.26500
Co560      Co  0.24814057  0.78646570  0.38113015     0.74070
C561        C  0.32763257  0.76963638  0.32336876     0.42120
N562        N  0.29247867  0.92223103  0.34071437     0.00520
N563        N  0.29123367  0.79219420  0.35348600     0.00630
N564        N  0.17145021  0.80717152  0.44127033    -0.47350
H565        H  0.32614845  0.88036711  0.46281660     0.06390
N566        N  0.28916313  0.81034298  0.42818207     0.00910
N567        N  0.20470032  0.79128454  0.35262933     0.00650
C568        C  0.16480211  0.77138266  0.32295697     0.42260
N569        N  0.29306348  0.94986913  0.35925978    -0.25950
C570        C  0.17438685  0.90531824  0.44670861    -0.06870
N571        N  0.32938788  0.95830497  0.41879106    -0.47060
N572        N  0.18236436  0.75840476  0.34481149    -0.47280
C573        C  0.15424667  0.94575584  0.44104537     0.42030
N574        N  0.20305544  0.81069778  0.42656958     0.00900
N575        N  0.20754122  0.95221652  0.36017757    -0.25980
N576        N  0.29113292  0.90376294  0.43184117    -0.26470
N577        N  0.20553809  0.92563140  0.34110444     0.00540
H578        H  0.18493037  0.01631048  0.36612700     0.06430
H579        H  0.17438061  0.83670050  0.30122969     0.06470
N580        N  0.20268914  0.78287861  0.40826784    -0.26520
N581        N  0.28989705  0.82433536  0.33644418    -0.26130
N582        N  0.20531384  0.93977110  0.41632082     0.00910
C583        C  0.34422456  0.77784421  0.43758854     0.42300
C584        C  0.31726279  0.98347631  0.35262009    -0.07380
N585        N  0.20364165  0.82542385  0.33692129    -0.26130
H586        H  0.31352848  0.83067814  0.29885171     0.06450
N587        N  0.31826786  0.80763511  0.44473234    -0.47350
H588        H  0.31978731  0.01351088  0.36258838     0.06440
C589        C  0.16989596  0.98116865  0.32983178     0.42140
C590        C  0.32202556  0.90360155  0.44764799    -0.06880
Co591      Co  0.25040581  0.94565017  0.38813414     0.73820
N592        N  0.31456038  0.93591904  0.32133978    -0.47070
C593        C  0.14827573  0.77549097  0.43223506     0.42400
N594        N  0.17470886  0.96562678  0.42154964    -0.47060
Co595      Co  0.24759563  0.87457791  0.33848652     0.73890
C596        C  0.17842402  0.81639660  0.31798714    -0.07390
C597        C  0.32765489  0.76139532  0.41364450    -0.06950
N598        N  0.20505783  0.90463361  0.43097548    -0.26480
N599        N  0.31284667  0.75909258  0.34627800    -0.47240
H600        H  0.15894646  0.73398074  0.39745007     0.06410
C601        C  0.18551383  0.98749803  0.35499183    -0.07360
Cl602      Cl  0.24808923  0.86614856  0.38399213    -0.50360
C603        C  0.33154608  0.97428284  0.32733845     0.42170
H604        H  0.16754313  0.87937981  0.45992311     0.06380
N605        N  0.18362561  0.94229842  0.32232029    -0.47070
C606        C  0.34133353  0.56011649  0.55362421     0.42020
N607        N  0.29049939  0.56482216  0.57874839     0.00910
C608        C  0.17313433  0.74672246  0.59088770    -0.06970
H609        H  0.34219216  0.76084131  0.60312583     0.06400
C610        C  0.31641662  0.68297944  0.68168824    -0.07320
Co611      Co  0.24631718  0.64767049  0.56756866     0.74180
N612        N  0.29458633  0.71854512  0.59038864    -0.26500
Co613      Co  0.25104077  0.71458943  0.61848061     0.74070
C614        C  0.33024905  0.72782788  0.67701621     0.42120
N615        N  0.29255486  0.57548765  0.65427534     0.00520
N616        N  0.29493297  0.70714996  0.64563136     0.00630
N617        N  0.17212350  0.70159361  0.55810119    -0.47350
H618        H  0.32425232  0.62360691  0.53264692     0.06390
N619        N  0.29102229  0.69393569  0.57071296     0.00910
N620        N  0.20894672  0.70895913  0.64717937     0.00650
C621        C  0.17502256  0.72951356  0.67897877     0.42260
N622        N  0.28990774  0.54827612  0.63551348    -0.25950
C623        C  0.16994485  0.60236623  0.54995658    -0.06870
N624        N  0.32192736  0.54003529  0.57341091    -0.47060
N625        N  0.18952980  0.74229920  0.65627424    -0.47280
C626        C  0.14570005  0.56449682  0.55723475     0.42030
N627        N  0.20416769  0.69530722  0.57234948     0.00900
N628        N  0.20507539  0.54961602  0.63683693    -0.25980
N629        N  0.28874227  0.59969960  0.56376091    -0.26470
N630        N  0.20626116  0.57620904  0.65590474     0.00540
H631        H  0.18168811  0.48486217  0.63286114     0.06430
H632        H  0.18574394  0.66423175  0.70026387     0.06470
N633        N  0.20557090  0.72099897  0.59170110    -0.26520
N634        N  0.29440285  0.67318482  0.66138925    -0.26130
N635        N  0.19962698  0.56649400  0.58025138     0.00910
C636        C  0.34828146  0.72580414  0.56538945     0.42300
C637        C  0.30939078  0.51160995  0.64224728    -0.07380
N638        N  0.20881622  0.67463771  0.66273339    -0.26130
H639        H  0.31658842  0.66422329  0.69923734     0.06450
N640        N  0.32185776  0.69767765  0.55545615    -0.47350
H641        H  0.30736867  0.48143879  0.63237951     0.06440
C642        C  0.17363227  0.51968877  0.67031801     0.42140
C643        C  0.31868957  0.59905196  0.54719426    -0.06880
Co644      Co  0.24619288  0.55633442  0.60739535     0.73820
N645        N  0.31256326  0.55877605  0.67370529    -0.47070
C646        C  0.15132029  0.73358920  0.56846610     0.42400
N647        N  0.16621211  0.54327568  0.57611207    -0.47060
Co648      Co  0.25045558  0.62465791  0.65848874     0.73890
C649        C  0.18747465  0.68422813  0.68320802    -0.07390
C650        C  0.33008650  0.74015420  0.58884343    -0.06950
N651        N  0.20161831  0.60138429  0.56530938    -0.26480
N652        N  0.31531358  0.74043516  0.65445942    -0.47240
H653        H  0.16515433  0.77014445  0.60472230     0.06410
C654        C  0.18410047  0.51368272  0.64386393    -0.07360
Cl655      Cl  0.24844849  0.63565071  0.61313175    -0.50360
C656        C  0.32385125  0.51840142  0.66788483     0.42170
H657        H  0.16466769  0.62741184  0.53570572     0.06380
N658        N  0.18798164  0.55942517  0.67600057    -0.47070
C659        C  0.25747842  0.50199667  0.99852498     0.00120
C660        C  0.21587525  0.50261640  0.99813165     0.00120
C661        C  0.21788139  0.75188777  0.99857678     0.00120
C662        C  0.25889522  0.74671998  0.00019633     0.00120
C663        C  0.37991711  0.53760886  0.92828903     0.42020
N664        N  0.43777316  0.54310925  0.91106875     0.00910
C665        C  0.06546203  0.72022432  0.91710788    -0.06970
H666        H  0.40352532  0.75298770  0.90123426     0.06400
C667        C  0.42124341  0.68679901  0.81888883    -0.07320
Co668      Co  0.48329087  0.61932222  0.92982465     0.74180
N669        N  0.44318314  0.69944420  0.91041728    -0.26500
Co670      Co  0.48947644  0.69981123  0.88335535     0.74070
C671        C  0.40580353  0.72823202  0.82772333     0.42120
N672        N  0.44269037  0.57279954  0.83782160     0.00520
N673        N  0.44724685  0.70140664  0.85485260     0.00630
N674        N  0.05732819  0.66762299  0.94715726    -0.47350
H675        H  0.39324230  0.59293336  0.95487170     0.06390
N676        N  0.44150250  0.66837537  0.92800012     0.00910
N677        N  0.03418028  0.69884733  0.85557070     0.00650
C678        C  0.07544117  0.72345540  0.82706477     0.42260
N679        N  0.44181623  0.54252289  0.85596137    -0.25950
C680        C  0.05728192  0.56623614  0.94635131    -0.06870
N681        N  0.40382861  0.51995310  0.91097776    -0.47060
N682        N  0.05829915  0.73209727  0.84936035    -0.47280
C683        C  0.08142090  0.53201423  0.93602780     0.42030
N684        N  0.02858090  0.66587426  0.93014107     0.00900
N685        N  0.02791807  0.53952295  0.85743740    -0.25980
N686        N  0.43756182  0.57367573  0.92787269    -0.26470
N687        N  0.02944242  0.56864222  0.83864469     0.00540
H688        H  0.05049203  0.47464899  0.86244343     0.06430
H689        H  0.06078978  0.66609234  0.80171514     0.06470
N690        N  0.03226858  0.69627495  0.91228021    -0.26520
N691        N  0.44662871  0.67243132  0.83700524    -0.26130
N692        N  0.02797414  0.54091374  0.91350581     0.00910
C693        C  0.38916663  0.70623637  0.93501326     0.42300
C694        C  0.41575929  0.51117464  0.84970197    -0.07380
N695        N  0.03327292  0.66897999  0.83817719    -0.26130
H696        H  0.41694603  0.67223964  0.80079823     0.06450
N697        N  0.41007696  0.67129995  0.94295221    -0.47350
H698        H  0.41202025  0.48030451  0.85975064     0.06440
C699        C  0.06570779  0.51504919  0.82683093     0.42140
C700        C  0.40253765  0.57190066  0.94012264    -0.06880
Co701      Co  0.48408424  0.54073224  0.88483787     0.73820
N702        N  0.41953549  0.56232938  0.81854027    -0.47070
C703        C  0.08184431  0.70099875  0.94058040     0.42400
N704        N  0.06139452  0.51742490  0.91559459    -0.47060
Co705      Co  0.48807616  0.62076030  0.83749350     0.73890
C706        C  0.05857075  0.68147271  0.81967821    -0.07390
C707        C  0.41113349  0.72534737  0.91329699    -0.06950
N708        N  0.02578768  0.57039809  0.93089765    -0.26480
N709        N  0.42402686  0.73513537  0.84984342    -0.47240
H710        H  0.07652873  0.74749187  0.90571587     0.06410
C711        C  0.05032512  0.50529148  0.85191838    -0.07360
Cl712      Cl  0.48649143  0.62021965  0.88372390    -0.50360
C713        C  0.40080998  0.52416158  0.82483826     0.42170
H714        H  0.06418194  0.58685817  0.96190880     0.06380
N715        N  0.05076211  0.55441373  0.81951277    -0.47070
C716        C  0.12671082  0.85445382  0.75258998     0.00120
C717        C  0.13059249  0.89949313  0.75387750     0.00120
C718        C  0.35460130  0.85389723  0.75422381     0.00120
C719        C  0.35941471  0.89785984  0.75017801     0.00120
C720        C  0.11397690  0.64508628  0.25006700     0.00120
C721        C  0.11520384  0.60031387  0.25065036     0.00120
C722        C  0.36131698  0.64583379  0.24825399     0.00120
C723        C  0.36388033  0.60144202  0.24780633     0.00120
C724        C  0.38442440  0.96334920  0.06576336     0.42020
N725        N  0.44072007  0.95739658  0.08519261     0.00910
C726        C  0.06862666  0.78234280  0.08727141    -0.06970
H727        H  0.40532726  0.74500444  0.09828755     0.06400
C728        C  0.41475762  0.82124012  0.17867135    -0.07320
Co729      Co  0.48626737  0.88001660  0.06931233     0.74180
N730        N  0.44482419  0.79933842  0.08883764    -0.26500
Co731      Co  0.48825307  0.80157508  0.11727757     0.74070
C732        C  0.40019677  0.77782021  0.17196446     0.42120
N733        N  0.44089190  0.93273306  0.15883690     0.00520
N734        N  0.44318632  0.80175651  0.14448592     0.00630
N735        N  0.06417283  0.83446786  0.05676753    -0.47350
H736        H  0.39708734  0.90482141  0.04142794     0.06390
N737        N  0.44419846  0.82928871  0.07064225     0.00910
N738        N  0.02978176  0.80369349  0.14651346     0.00650
C739        C  0.06531211  0.77859463  0.17757199     0.42260
N740        N  0.44240430  0.96162910  0.14005379    -0.25950
C741        C  0.05791330  0.93802224  0.05161990    -0.06870
N742        N  0.40780026  0.98138061  0.08353737    -0.47060
N743        N  0.05111237  0.76984117  0.15445950    -0.47280
C744        C  0.07944191  0.97633102  0.06041882     0.42030
N745        N  0.03262933  0.83489391  0.07173975     0.00900
N746        N  0.02901605  0.96266025  0.14155892    -0.25980
N747        N  0.44038604  0.92535943  0.06921860    -0.26470
N748        N  0.02872453  0.93297426  0.16006724     0.00540
H749        H  0.05863535  0.02504663  0.13722887     0.06430
H750        H  0.05222421  0.83892313  0.20075081     0.06470
N751        N  0.03427420  0.80488346  0.08996048    -0.26520
N752        N  0.44154264  0.83307149  0.16093320    -0.26130
N753        N  0.02980200  0.96111465  0.08497735     0.00910
C754        C  0.39280594  0.78839501  0.06297767     0.42300
C755        C  0.41703007  0.99382288  0.14433588    -0.07380
N756        N  0.02808170  0.83434478  0.16333307    -0.26130
H757        H  0.41004758  0.83820516  0.19592419     0.06450
N758        N  0.41368205  0.82406451  0.05493932    -0.47350
H759        H  0.41500572  0.02375293  0.13321305     0.06440
C760        C  0.07126913  0.98170456  0.17231793     0.42140
C761        C  0.40617492  0.92695281  0.05584294    -0.06880
Co762      Co  0.48585898  0.96140011  0.11273088     0.73820
N763        N  0.41626253  0.94513330  0.17682947    -0.47070
C764        C  0.08894684  0.80255585  0.06506751     0.42400
N765        N  0.06049553  0.98879196  0.08145077    -0.47060
Co766      Co  0.48467980  0.88343122  0.16118442     0.73890
C767        C  0.05064478  0.82203872  0.18323026    -0.07390
C768        C  0.41342289  0.77191394  0.08569224    -0.06950
N769        N  0.02828712  0.93074172  0.06806738    -0.26480
N770        N  0.41956929  0.76816849  0.15062232    -0.47240
H771        H  0.07793370  0.75571748  0.09955122     0.06410
C772        C  0.05499191  0.99442906  0.14755324    -0.07360
Cl773      Cl  0.48651076  0.88152416  0.11529985    -0.50360
C774        C  0.39943388  0.98317021  0.16870187     0.42170
H775        H  0.06462328  0.91795708  0.03584458     0.06380
N776        N  0.05275806  0.94363121  0.17892300    -0.47070
C777        C  0.41106295  0.55379807  0.18902691    -0.09600
C778        C  0.38651130  0.01691809  0.18599844     0.06600
C779        C  0.35162309  0.01225519  0.20040799    -0.03360
C780        C  0.34313290  0.54289755  0.21844404    -0.07810
C781        C  0.37081286  0.57646032  0.22431156     0.05720
C782        C  0.40553090  0.58138228  0.20914587    -0.02840
Br783      Br  0.44993773  0.61932827  0.21656142    -0.02530
H784        H  0.43692538  0.55904421  0.17698472     0.09630
H785        H  0.31520071  0.53887912  0.22845256     0.07650
Br786      Br  0.31453730  0.96495296  0.19583205    -0.02960
C787        C  0.35475007  0.67551027  0.20338131    -0.09600
C788        C  0.37405467  0.67590214  0.22699959     0.06600
C789        C  0.40250519  0.70928327  0.23157359    -0.03360
C790        C  0.40865391  0.74280462  0.21386468    -0.07810
C791        C  0.38887029  0.74325089  0.19063060     0.05720
C792        C  0.36242839  0.70863306  0.18510666    -0.02840
Br793      Br  0.33478419  0.70662939  0.15345848    -0.02530
H794        H  0.33277821  0.65034515  0.19947689     0.09630
H795        H  0.43028142  0.76806019  0.21803008     0.07650
Br796      Br  0.43741739  0.70892859  0.26046828    -0.02960
C797        C  0.06570395  0.57073264  0.21982684    -0.09600
C798        C  0.10576015  0.57476065  0.22776333     0.06600
C799        C  0.13505712  0.54817042  0.21672243    -0.03360
C800        C  0.12400119  0.01944048  0.19777215    -0.07810
C801        C  0.08352221  0.01360992  0.19127357     0.05720
C802        C  0.05437346  0.53786638  0.20352193    -0.02840
Br803      Br  0.49945970  0.51983429  0.20304909    -0.02530
H804        H  0.04259581  0.58911118  0.22893484     0.09630
H805        H  0.14676737  0.00011396  0.18902087     0.07650
Br806      Br  0.19039985  0.54878745  0.22723266    -0.02960
C807        C  0.10694906  0.71435803  0.18929807    -0.09600
C808        C  0.07641625  0.74305282  0.19576339     0.06600
C809        C  0.05553132  0.73506152  0.21855514    -0.03360
C810        C  0.06523915  0.69913070  0.23404065    -0.07810
C811        C  0.09740641  0.67188469  0.22845907     0.05720
C812        C  0.11858869  0.68013339  0.20575603    -0.02840
Br813      Br  0.16667832  0.65029799  0.19751553    -0.02530
H814        H  0.12331394  0.72003068  0.17189268     0.09630
H815        H  0.04939336  0.69430911  0.25170602     0.07650
Br816      Br  0.01445442  0.77220786  0.23056054    -0.02960
C817        C  0.05953738  0.97481759  0.78698779    -0.09600
C818        C  0.08004111  0.48156445  0.80955438     0.06600
C819        C  0.11296953  0.45472631  0.81585907    -0.03760
C820        C  0.12791048  0.92584964  0.79833458    -0.07810
C821        C  0.10902758  0.92130565  0.77480213     0.05720
C822        C  0.07345422  0.94476562  0.76979896    -0.02840
Br823      Br  0.04578256  0.94077108  0.73835980    -0.02530
H824        H  0.03314190  0.99378694  0.78231370     0.09630
H825        H  0.15611261  0.90987091  0.80223726     0.07650
Br826      Br  0.14228292  0.46074242  0.84674413    -0.02960
C827        C  0.13200562  0.81951896  0.79606674    -0.09600
C828        C  0.10933611  0.82672518  0.77387443     0.06600
C829        C  0.07552626  0.79947307  0.76988869    -0.03360
C830        C  0.06658189  0.76505892  0.78677504    -0.07810
C831        C  0.08854342  0.75862053  0.80906758     0.05720
C832        C  0.12088524  0.78704789  0.81402688    -0.02840
Br833      Br  0.15222363  0.78074418  0.84423023    -0.02530
H834        H  0.15958735  0.83762857  0.79892570     0.09630
H835        H  0.04123418  0.74392521  0.78278036     0.07650
Br836      Br  0.03935353  0.80749754  0.74211917    -0.02960
C837        C  0.34773148  0.93114059  0.79223167    -0.09600
C838        C  0.37218694  0.92698231  0.77091051     0.06600
C839        C  0.40535680  0.95558206  0.76763289    -0.03360
C840        C  0.41324343  0.48762002  0.78497338    -0.07810
C841        C  0.38873426  0.49214208  0.80603634     0.05720
C842        C  0.35597864  0.96323190  0.80983626    -0.02840
Br843      Br  0.32062919  0.96796096  0.83801652    -0.02530
H844        H  0.32144866  0.91037646  0.79473276     0.09630
H845        H  0.43929956  0.50867778  0.78219828     0.07650
Br846      Br  0.44173333  0.95227191  0.74008211    -0.02960
C847        C  0.35087077  0.77087958  0.80749102    -0.09600
C848        C  0.39201714  0.76492991  0.81165805     0.06600
C849        C  0.41968151  0.79554070  0.80133762    -0.03360
C850        C  0.40640731  0.82877430  0.78494958    -0.07810
C851        C  0.36556294  0.83202320  0.77865086     0.05720
C852        C  0.33749532  0.80451584  0.79132380    -0.02840
Br853      Br  0.28071311  0.81132447  0.78677716    -0.02530
H854        H  0.32920025  0.74894000  0.81645092     0.09630
H855        H  0.42835232  0.84958705  0.77536180     0.07650
Br856      Br  0.47612504  0.79181279  0.80787081    -0.02960
C857        C  0.13003406  0.81085797  0.02676582    -0.09600
C858        C  0.12648274  0.79176470  0.05092196     0.06600
C859        C  0.15806153  0.76431249  0.05950840    -0.03360
C860        C  0.19040587  0.75487288  0.04329256    -0.07810
C861        C  0.19224024  0.77238794  0.01845174     0.05720
C862        C  0.16143767  0.80140147  0.01074110    -0.02840
Br863      Br  0.15717628  0.82801977  0.97775036    -0.02530
H864        H  0.10704842  0.83256256  0.01950481     0.09630
H865        H  0.21270269  0.73157391  0.04960362     0.07650
Br866      Br  0.15931001  0.73848803  0.09272081    -0.02960
C867        C  0.30618970  0.72287557  0.03454242    -0.09600
C868        C  0.28369805  0.75652934  0.02295205     0.06600
C869        C  0.29495868  0.79940646  0.02767921    -0.03360
C870        C  0.32934839  0.80876294  0.04168194    -0.07810
C871        C  0.35334165  0.77554920  0.05199524     0.05720
C872        C  0.34060806  0.73197005  0.04912288    -0.02840
Br873      Br  0.37166611  0.68362935  0.06137725    -0.02530
H874        H  0.29883594  0.68938538  0.03057562     0.09630
H875        H  0.33862053  0.84238945  0.04328104     0.07650
Br876      Br  0.26813416  0.84601518  0.01167923    -0.02960
C877        C  0.16389966  0.70022325  0.99017413    -0.09600
C878        C  0.19261746  0.72897194  0.97957217     0.06600
C879        C  0.18750850  0.74307946  0.95413678    -0.03360
C880        C  0.15138356  0.73328787  0.94156008    -0.07810
C881        C  0.12017912  0.70999544  0.95387430     0.05720
C882        C  0.12731865  0.69262145  0.97841144    -0.02840
Br883      Br  0.08781873  0.66211652  0.99880765    -0.02530
H884        H  0.16783574  0.68798277  0.00936239     0.09630
H885        H  0.14715378  0.74539170  0.92240333     0.07650
Br886      Br  0.22470749  0.78100565  0.93652198    -0.02960
C887        C  0.32437811  0.68538215  0.95563277    -0.09600
C888        C  0.35080550  0.71862940  0.94687083     0.06600
C889        C  0.34210238  0.76189117  0.95242539    -0.03360
C890        C  0.30963925  0.77057399  0.96807299    -0.07810
C891        C  0.28439725  0.73712806  0.97795330     0.05720
C892        C  0.29075010  0.69454839  0.97035927    -0.02840
Br893      Br  0.25491249  0.64829098  0.98038574    -0.02530
H894        H  0.33070350  0.65189540  0.95173813     0.09630
H895        H  0.30518983  0.80374278  0.97329459     0.07650
Br896      Br  0.37613126  0.81000753  0.94225754    -0.02960
C897        C  0.14524553  0.95280633  0.04717170    -0.09600
C898        C  0.12108883  0.98777471  0.05263278     0.06600
C899        C  0.13413401  0.02994278  0.04506385    -0.03360
C900        C  0.16898972  0.03535697  0.02995575    -0.07810
C901        C  0.18990774  0.99888479  0.02136136     0.05720
C902        C  0.17680495  0.95772499  0.03043818    -0.02840
Br903      Br  0.19182198  0.90565875  0.01621551    -0.02530
H904        H  0.13594204  0.92013640  0.05303642     0.09630
H905        H  0.17734634  0.56764893  0.02301903     0.07650
Br906      Br  0.10299101  0.07979712  0.05252776    -0.02960
C907        C  0.27886924  0.96646101  0.04008964    -0.09600
C908        C  0.28211574  0.00165515  0.02258750     0.06600
C909        C  0.31600779  0.02992531  0.02498777    -0.03360
C910        C  0.34746487  0.01924373  0.04144743    -0.07810
C911        C  0.34631561  0.98070095  0.05581946     0.05720
C912        C  0.31072308  0.95565826  0.05639962    -0.02840
Br913      Br  0.30556683  0.90478879  0.07794871    -0.02530
H914        H  0.25401203  0.94409536  0.03938998     0.09630
H915        H  0.37451426  0.03925104  0.04134514     0.07650
Br916      Br  0.32451676  0.58156043  0.00483184    -0.02960
C917        C  0.17850739  0.55192405  0.96882752    -0.09600
C918        C  0.19193022  0.50981326  0.97440900     0.06600
C919        C  0.17580795  0.47559002  0.96013086    -0.03360
C920        C  0.13992965  0.48199915  0.94624438    -0.07810
C921        C  0.12393357  0.52389387  0.94346020     0.05720
C922        C  0.14762152  0.55891811  0.95151584    -0.02840
Br923      Br  0.14371585  0.61486059  0.93548773    -0.02530
H924        H  0.19251247  0.57947681  0.97764196     0.09630
H925        H  0.12492161  0.45471450  0.93770533     0.07650
Br926      Br  0.20576096  0.92407922  0.95482356    -0.02960
C927        C  0.27771590  0.53669555  0.95652686    -0.09600
C928        C  0.28198716  0.50247614  0.97457805     0.06600
C929        C  0.31505510  0.47404141  0.97171016    -0.03360
C930        C  0.34407657  0.48260884  0.95337152    -0.07810
C931        C  0.34193373  0.51965141  0.93793676     0.05720
C932        C  0.30729672  0.54524601  0.93830479    -0.02840
Br933      Br  0.30076875  0.59377060  0.91520658    -0.02530
H934        H  0.25395618  0.55985315  0.95798869     0.09630
H935        H  0.37089163  0.96288840  0.95311125     0.07650
Br936      Br  0.32754559  0.92601616  0.99363156    -0.02960
C937        C  0.15143466  0.50280443  0.71349901    -0.09600
C938        C  0.16490395  0.48670857  0.69077451     0.06600
C939        C  0.17705316  0.94284062  0.69087898    -0.03360
C940        C  0.16988477  0.91565915  0.71221235    -0.07810
C941        C  0.15000296  0.93039207  0.73375970     0.05720
C942        C  0.14714325  0.97657625  0.73490838    -0.02840
Br943      Br  0.15474879  0.50850885  0.76535063    -0.02530
H944        H  0.14706640  0.53745980  0.71515466     0.09630
H945        H  0.18185536  0.88354602  0.71173830     0.07650
Br946      Br  0.20761174  0.91810479  0.66443708    -0.02960
C947        C  0.13535896  0.79333557  0.69100425    -0.09600
C948        C  0.16358863  0.76155085  0.69791106     0.06600
C949        C  0.18278665  0.76409288  0.72157287    -0.03360
C950        C  0.17163766  0.79618697  0.73820505    -0.07810
C951        C  0.14190869  0.82686270  0.73190039     0.05720
C952        C  0.12424678  0.82562447  0.70760447    -0.02840
Br953      Br  0.08593726  0.86732607  0.69522576    -0.02530
H954        H  0.12162663  0.79291223  0.67249137     0.09630
H955        H  0.18619241  0.79700035  0.75645426     0.07650
Br956      Br  0.22636942  0.72717984  0.73195840    -0.02960
C957        C  0.35693939  0.95013370  0.68363684    -0.09600
C958        C  0.32945502  0.48367294  0.68750852     0.06600
C959        C  0.30804198  0.48375950  0.71043230    -0.03360
C960        C  0.31694290  0.95334765  0.72946385    -0.07810
C961        C  0.34652107  0.92176254  0.72657145     0.05720
C962        C  0.36575003  0.91929094  0.70291082    -0.02840
Br963      Br  0.40688459  0.87807010  0.69614116    -0.02530
H964        H  0.37284835  0.44914839  0.66596568     0.09630
H965        H  0.30105743  0.95503651  0.74717274     0.07650
Br966      Br  0.26540934  0.52332583  0.71737383    -0.02960
C967        C  0.30712807  0.79163206  0.70017174    -0.09600
C968        C  0.33623361  0.75951500  0.69680616     0.06600
C969        C  0.37001365  0.75802874  0.71249093    -0.03360
C970        C  0.37562966  0.78996586  0.73020860    -0.07810
C971        C  0.34699150  0.82285625  0.73359187     0.05720
C972        C  0.31162027  0.82240990  0.71885609    -0.02840
Br973      Br  0.26684096  0.85938155  0.72472897    -0.02530
H974        H  0.28002955  0.79179238  0.68877492     0.09630
H975        H  0.40282950  0.78892335  0.74140045     0.07650
Br976      Br  0.40940951  0.71328582  0.71024485    -0.02960
C977        C  0.11817946  0.00747565  0.30005909    -0.09600
C978        C  0.15454812  0.01534906  0.31225795     0.06600
C979        C  0.17548146  0.55485490  0.30680126    -0.03360
C980        C  0.16251964  0.58229621  0.28687616    -0.07810
C981        C  0.12652717  0.57367490  0.27384975     0.05720
C982        C  0.10305212  0.53708778  0.28211114    -0.02840
Br983      Br  0.04825358  0.52711210  0.27241037    -0.02530
H984        H  0.10069398  0.97861508  0.30516582     0.09630
H985        H  0.18114545  0.60999494  0.28134645     0.07650
Br986      Br  0.22197845  0.57340950  0.32535382    -0.02960
C987        C  0.12230874  0.70784147  0.31111655    -0.09600
C988        C  0.15155693  0.73934414  0.30420033     0.06600
C989        C  0.16974702  0.73701997  0.28031000    -0.03360
C990        C  0.15935410  0.70337438  0.26445670    -0.07810
C991        C  0.12919762  0.67275888  0.27084788     0.05720
C992        C  0.10999455  0.67571623  0.29437053    -0.02840
Br993      Br  0.06456406  0.63991709  0.30364460    -0.02530
H994        H  0.10789643  0.70923314  0.32931556     0.09630
H995        H  0.17374090  0.70236216  0.24624373     0.07650
Br996      Br  0.20855288  0.77839574  0.26732285    -0.02960
C997        C  0.37818452  0.52696323  0.30563101    -0.09600
C998        C  0.33958466  0.00858147  0.30794808     0.06600
C999        C  0.30885661  0.52330408  0.29152768    -0.03360
C1000       C  0.31611402  0.55830045  0.27479683    -0.07810
C1001       C  0.35528879  0.57415189  0.27088848     0.05720
C1002       C  0.38663207  0.55798177  0.28642280    -0.02840
Br1003     Br  0.44153648  0.57593180  0.28155172    -0.02530
H1004       H  0.40220758  0.01544458  0.31783075     0.09630
H1005       H  0.29177306  0.57024280  0.26297172     0.07650
Br1006     Br  0.25841585  0.99312746  0.28818903    -0.02960
C1007       C  0.31071353  0.73298119  0.28390856    -0.09600
C1008       C  0.33506936  0.73519599  0.30536200     0.06600
C1009       C  0.36234495  0.70148142  0.31068717    -0.03360
C1010       C  0.36754541  0.66862648  0.29334127    -0.07810
C1011       C  0.34577796  0.66888417  0.27058447     0.05720
C1012       C  0.31492340  0.69952554  0.26705509    -0.02840
Br1013     Br  0.27731868  0.69656006  0.23965559    -0.02530
H1014       H  0.28796920  0.75713906  0.28039455     0.09630
H1015       H  0.39137324  0.64566065  0.29662456     0.07650
Br1016     Br  0.39581438  0.70132363  0.34016098    -0.02960
C1017       C  0.07028172  0.79021238  0.53214141    -0.09600
C1018       C  0.04491135  0.75448715  0.52700950     0.06600
C1019       C  0.04980510  0.71560050  0.54164457    -0.03360
C1020       C  0.08306165  0.71108329  0.55745979    -0.07810
C1021       C  0.11090135  0.74495840  0.55986442     0.05720
C1022       C  0.10297279  0.78570518  0.54865189    -0.02840
Br1023     Br  0.13916451  0.83379401  0.55289680    -0.02530
H1024       H  0.06674490  0.82066184  0.52164758     0.09630
H1025       H  0.08877860  0.67979931  0.56666413     0.07650
Br1026     Br  0.01544731  0.66571769  0.54075678    -0.02960
C1027       C  0.44969848  0.77149317  0.54237404    -0.09600
C1028       C  0.45651461  0.74222770  0.52302216     0.06600
C1029       C  0.43164589  0.70547995  0.52132939    -0.03360
C1030       C  0.39975587  0.69915765  0.53750300    -0.07810
C1031       C  0.38921258  0.73073768  0.55467088     0.05720
C1032       C  0.41576157  0.76635965  0.55805143    -0.02840
Br1033     Br  0.40584362  0.81086445  0.58154017    -0.02530
H1034       H  0.46838478  0.80040709  0.54364342     0.09630
H1035       H  0.38141666  0.67031771  0.53515370     0.07650
Br1036     Br  0.43799179  0.66394690  0.49593423    -0.02960
C1037       C  0.07361963  0.72440219  0.47574505    -0.09600
C1038       C  0.04845088  0.75976446  0.48002272     0.06600
C1039       C  0.05303235  0.79816692  0.46521596    -0.03360
C1040       C  0.08320611  0.80069586  0.44698288    -0.07810
C1041       C  0.10901001  0.76553696  0.44331338     0.05720
C1042       C  0.10307262  0.72658543  0.45717362    -0.02840
Br1043     Br  0.13806668  0.67792415  0.45401530    -0.02530
H1044       H  0.07172246  0.69575416  0.48790118     0.09630
H1045       H  0.08878680  0.83150668  0.43709547     0.07650
Br1046     Br  0.02355628  0.84988228  0.47157849    -0.02960
C1047       C  0.41593881  0.75051452  0.44140670    -0.09600
C1048       C  0.38349050  0.77370748  0.45096964     0.06600
C1049       C  0.38957531  0.79601443  0.47363710    -0.03360
C1050       C  0.42749587  0.79878678  0.48415908    -0.07810
C1051       C  0.45712720  0.76906390  0.47813077     0.05720
C1052       C  0.45204473  0.74611890  0.45541710    -0.02840
Br1053     Br  0.49059381  0.70642140  0.44295107    -0.02530
H1054       H  0.41233958  0.73352594  0.42398715     0.09630
H1055       H  0.43083757  0.81750144  0.50095763     0.07650
Br1056     Br  0.34734140  0.81342674  0.49587574    -0.02960
C1057       C  0.05111422  0.50305384  0.53545201    -0.09600
C1058       C  0.03813791  0.53090564  0.51551764     0.06600
C1059       C  0.05611154  0.57204157  0.51297295    -0.03360
C1060       C  0.08891467  0.58315417  0.52804982    -0.07810
C1061       C  0.10583766  0.55316011  0.54564393     0.05720
C1062       C  0.08506196  0.51335361  0.55013663    -0.02840
Br1063     Br  0.10295430  0.47008116  0.57427090    -0.02530
H1064       H  0.03708527  0.97134019  0.53815394     0.09630
H1065       H  0.10198891  0.61511525  0.52490482     0.07650
Br1066     Br  0.03823951  0.61313003  0.48790174    -0.02960
C1067       C  0.38227637  0.56124023  0.51469910    -0.09600
C1068       C  0.37805391  0.54618983  0.53977041     0.06600
C1069       C  0.40960873  0.52124922  0.55045926    -0.03360
C1070       C  0.44371857  0.51152633  0.53588159    -0.07810
C1071       C  0.44690101  0.52538906  0.51037373     0.05720
C1072       C  0.41557066  0.55123093  0.50016349    -0.02840
Br1073     Br  0.41497350  0.57394362  0.46607948    -0.02530
H1074       H  0.35881815  0.58035496  0.50577807     0.09630
H1075       H  0.46666356  0.49095973  0.54417494     0.07650
Br1076     Br  0.40772180  0.49938462  0.58459259    -0.02960
C1077       C  0.09461509  0.99427973  0.44163138    -0.09600
C1078       C  0.11671985  0.96065215  0.45318885     0.06600
C1079       C  0.10159347  0.94140099  0.47594372    -0.03360
C1080       C  0.06476213  0.95402580  0.48534394    -0.07810
C1081       C  0.04496894  0.99052379  0.47556115     0.05720
C1082       C  0.05987760  0.51036190  0.45288144    -0.02840
Br1083     Br  0.03628234  0.55940704  0.43561562    -0.02530
H1084       H  0.10523755  0.50934478  0.42417417     0.09630
H1085       H  0.05373716  0.93793822  0.50237300     0.07650
Br1086     Br  0.13101749  0.90485748  0.49917994    -0.02960
C1087       C  0.45149883  0.98808437  0.44969965    -0.09600
C1088       C  0.45767630  0.97444486  0.47482171     0.06600
C1089       C  0.43477892  0.93928113  0.48441093    -0.03360
C1090       C  0.40040166  0.92634054  0.47158863    -0.07810
C1091       C  0.38911322  0.94691684  0.44859494     0.05720
C1092       C  0.41705424  0.97523462  0.43656780    -0.02840
Br1093     Br  0.40882100  0.50068901  0.40359644    -0.02530
H1094       H  0.46948172  0.51386174  0.44156528     0.09630
H1095       H  0.38157219  0.90196441  0.48075476     0.07650
Br1096     Br  0.44751702  0.91044298  0.51591849    -0.02960
C1097       C  0.97644488  0.00468572  0.49292677     0.00120
C1098       C  0.51702669  0.51184897  0.49344134     0.00120
C1099       C  0.52239356  0.25658105  0.50254480     0.00120
C1100       C  0.98168266  0.25456995  0.50076241     0.00120
C1101       C  0.84822247  0.43830903  0.43862852     0.42020
N1102       N  0.79504696  0.43656134  0.41559174     0.00910
C1103       C  0.66873312  0.25858009  0.41028767    -0.06970
H1104       H  0.84007870  0.23776183  0.40129703     0.06400
C1105       C  0.81239471  0.31321054  0.31682090    -0.07320
Co1106     Co  0.74676874  0.35729476  0.42959846     0.74180
N1107       N  0.79291222  0.28362163  0.40959135    -0.26500
Co1108     Co  0.74811585  0.28646944  0.38113418     0.74070
C1109       C  0.82761479  0.26963905  0.32337453     0.42120
N1110       N  0.79246802  0.42223424  0.34072373     0.00520
N1111       N  0.79121240  0.29219482  0.35349102     0.00630
N1112       N  0.67142093  0.30717937  0.44127238    -0.47350
H1113       H  0.82612276  0.38035859  0.46283003     0.06390
N1114       N  0.78913469  0.31033909  0.42818787     0.00910
N1115       N  0.70467931  0.29129356  0.35263261     0.00650
C1116       C  0.66478679  0.27139366  0.32295710     0.42260
N1117       N  0.79305373  0.44987250  0.35926920    -0.25950
C1118       C  0.67436879  0.40532348  0.44671586    -0.06870
N1119       N  0.82937500  0.45830210  0.41880835    -0.47060
N1120       N  0.68234372  0.25841506  0.34481303    -0.47280
C1121       C  0.65423527  0.44576612  0.44105727     0.42030
N1122       N  0.70302738  0.31070394  0.42657243     0.00900
N1123       N  0.70753169  0.45222446  0.36018597    -0.25980
N1124       N  0.79111556  0.40375875  0.43185151    -0.26470
N1125       N  0.70552779  0.42563894  0.34111292     0.00540
H1126       H  0.68491994  0.51631831  0.36613504     0.06430
H1127       H  0.67437287  0.33671115  0.30123053     0.06470
N1128       N  0.70266100  0.28288495  0.40827056    -0.26520
N1129       N  0.78988077  0.32433871  0.33645077    -0.26130
N1130       N  0.70529991  0.43977868  0.41633045     0.00910
C1131       C  0.84419546  0.27783944  0.43759242     0.42300
C1132       C  0.81725241  0.48348012  0.35262834    -0.07380
N1133       N  0.70362543  0.32543318  0.33692477    -0.26130
H1134       H  0.81351832  0.33068576  0.29885992     0.06450
N1135       N  0.81823918  0.30762923  0.44473793    -0.47350
H1136       H  0.81977683  0.51351530  0.36259602     0.06440
C1137       C  0.66988503  0.48117506  0.32984013     0.42140
C1138       C  0.82200459  0.40359444  0.44766157    -0.06880
Co1139     Co  0.75039477  0.44565483  0.38814400     0.73820
N1140       N  0.81454897  0.43592190  0.32134870    -0.47070
C1141       C  0.64824472  0.27550081  0.43223648     0.42400
N1142       N  0.67469892  0.46563859  0.42156235    -0.47060
Co1143     Co  0.74758243  0.37458402  0.33849376     0.73890
C1144       C  0.67841160  0.31640712  0.31798838    -0.07390
C1145       C  0.82762648  0.26139371  0.41364779    -0.06950
N1146       N  0.70503941  0.40463807  0.43098257    -0.26480
N1147       N  0.81282408  0.25909235  0.34628233    -0.47240
H1148       H  0.65891690  0.23398871  0.39745223     0.06410
C1149       C  0.68550404  0.48750579  0.35499995    -0.07360
Cl1150     Cl  0.74807179  0.36615278  0.38399896    -0.50360
C1151       C  0.83153488  0.47428599  0.32734631     0.42170
H1152       H  0.66752058  0.37938344  0.45992860     0.06380
N1153       N  0.68361445  0.44230484  0.32232905    -0.47070
C1154       C  0.84133701  0.06014556  0.55357946     0.42020
N1155       N  0.79050367  0.06483280  0.57870435     0.00910
C1156       C  0.67311670  0.24670276  0.59089826    -0.06970
H1157       H  0.84217853  0.26083230  0.60313282     0.06400
C1158       C  0.81639162  0.18294618  0.68168544    -0.07320
Co1159     Co  0.74630977  0.14768143  0.56754893     0.74180
N1160       N  0.79456850  0.21854849  0.59038576    -0.26500
Co1161     Co  0.75102419  0.21456100  0.61848063     0.74070
C1162       C  0.83019350  0.22780993  0.67702722     0.42120
N1163       N  0.79258327  0.07545370  0.65422544     0.00520
N1164       N  0.79491878  0.20712245  0.64562739     0.00630
N1165       N  0.67211150  0.20160477  0.55809714    -0.47350
H1166       H  0.82425044  0.12364575  0.53261300     0.06390
N1167       N  0.79100490  0.19395368  0.57070340     0.00910
N1168       N  0.70893252  0.20888412  0.64718317     0.00650
C1169       C  0.67499578  0.22936314  0.67899408     0.42260
N1170       N  0.78993091  0.04825230  0.63545900    -0.25950
C1171       C  0.66994085  0.10237793  0.54993404    -0.06870
N1172       N  0.82193231  0.04005214  0.57336175    -0.47060
N1173       N  0.68949728  0.24219687  0.65629528    -0.47280
C1174       C  0.64570368  0.06449996  0.55720597     0.42030
N1175       N  0.70415359  0.19530581  0.57234530     0.00900
N1176       N  0.70510268  0.04955792  0.63679763    -0.25980
N1177       N  0.78874317  0.09972004  0.56372489    -0.26470
N1178       N  0.70628494  0.07615049  0.65586547     0.00540
H1179       H  0.68171425  0.98479373  0.63282871     0.06430
H1180       H  0.68575833  0.16406815  0.70025086     0.06470
N1181       N  0.70555322  0.22097987  0.59170489    -0.26520
N1182       N  0.79440203  0.17314537  0.66137676    -0.26130
N1183       N  0.69963586  0.06648698  0.58021620     0.00910
C1184       C  0.84826338  0.22582563  0.56538625     0.42300
C1185       C  0.80941258  0.01158262  0.64218282    -0.07380
N1186       N  0.70881916  0.17454438  0.66272294    -0.26130
H1187       H  0.81655809  0.16418225  0.69923188     0.06450
N1188       N  0.82183901  0.19770759  0.55544661    -0.47350
H1189       H  0.80738249  0.98141656  0.63231049     0.06440
C1190       C  0.67362600  0.01965117  0.67027125     0.42140
C1191       C  0.81869008  0.09908352  0.54715659    -0.06880
Co1192     Co  0.74620814  0.05631437  0.60735186     0.73820
N1193       N  0.81259485  0.05873110  0.67365007    -0.47070
C1194       C  0.65130740  0.23359073  0.56847112     0.42400
N1195       N  0.66622319  0.04326715  0.57607523    -0.47060
Co1196     Co  0.75047227  0.12460042  0.65845972     0.73890
C1197       C  0.68747367  0.18408712  0.68320294    -0.07390
C1198       C  0.83006945  0.24015834  0.58884490    -0.06950
N1199       N  0.70161876  0.10138854  0.56528264    -0.26480
N1200       N  0.81526650  0.24041908  0.65446921    -0.47240
H1201       H  0.66513634  0.27011405  0.60473889     0.06410
C1202       C  0.68412181  0.01362574  0.64382369    -0.07360
Cl1203     Cl  0.74845145  0.13562769  0.61310837    -0.50360
C1204       C  0.82387448  0.01835940  0.66781994     0.42170
H1205       H  0.66465600  0.12743407  0.53569066     0.06380
N1206       N  0.68798365  0.05938078  0.67595632    -0.47070
C1207       C  0.75746362  0.00199330  0.99855532     0.00120
C1208       C  0.71586120  0.00260605  0.99815918     0.00120
C1209       C  0.71787980  0.25189448  0.99857289     0.00120
C1210       C  0.75889323  0.24672746  0.00019101     0.00120
C1211       C  0.87988894  0.03764641  0.92831703     0.42020
N1212       N  0.93775537  0.04312575  0.91111156     0.00910
C1213       C  0.56545159  0.22021723  0.91711095    -0.06970
H1214       H  0.90353748  0.25300153  0.90123138     0.06400
C1215       C  0.92125351  0.18676679  0.81890865    -0.07320
Co1216     Co  0.98327988  0.11934183  0.92985924     0.74180
N1217       N  0.94319151  0.19946137  0.91043065    -0.26500
Co1218     Co  0.98948963  0.19980438  0.88337318     0.74070
C1219       C  0.90581328  0.22820604  0.82773605     0.42120
N1220       N  0.94268262  0.07278456  0.83787331     0.00520
N1221       N  0.94726383  0.20139502  0.85486733     0.00630
N1222       N  0.55732171  0.16762057  0.94716357    -0.47350
H1223       H  0.89320687  0.09298269  0.95489366     0.06390
N1224       N  0.94150333  0.16840251  0.92801920     0.00910
N1225       N  0.53415867  0.19882119  0.85557762     0.00650
C1226       C  0.57547127  0.22337922  0.82708767     0.42260
N1227       N  0.94181689  0.04249773  0.85600712    -0.25950
C1228       C  0.55727010  0.06623266  0.94636871    -0.06870
N1229       N  0.90380904  0.01997489  0.91101699    -0.47060
N1230       N  0.55831270  0.23204503  0.84937507    -0.47280
C1231       C  0.58140830  0.03200686  0.93604859     0.42030
N1232       N  0.52857188  0.16586942  0.93014922     0.00900
N1233       N  0.52790036  0.03951276  0.85745744    -0.25980
N1234       N  0.93754047  0.07370258  0.92790913    -0.26470
N1235       N  0.52941349  0.06862686  0.83866179     0.00540
H1236       H  0.55051286  0.97465519  0.86247445     0.06430
H1237       H  0.56079717  0.16602615  0.80173576     0.06470
N1238       N  0.53225718  0.19626730  0.91228638    -0.26520
N1239       N  0.94664221  0.17240832  0.83702643    -0.26130
N1240       N  0.52796273  0.04090515  0.91352443     0.00910
C1241       C  0.88916753  0.20626963  0.93501708     0.42300
C1242       C  0.91577120  0.01114249  0.84973906    -0.07380
N1243       N  0.53324287  0.16895237  0.83818579    -0.26130
H1244       H  0.91694823  0.17219326  0.80082273     0.06450
N1245       N  0.91007334  0.17133715  0.94296588    -0.47350
H1246       H  0.91204450  0.98026571  0.85978216     0.06440
C1247       C  0.56570711  0.01505223  0.82685798     0.42140
C1248       C  0.90250805  0.07194090  0.94015046    -0.06880
Co1249     Co  0.98407294  0.04072272  0.88489214     0.73820
N1250       N  0.91951915  0.06232972  0.81859449    -0.47070
C1251       C  0.58183713  0.20099502  0.94058354     0.42400
N1252       N  0.56138195  0.01741433  0.91561591    -0.47060
Co1253     Co  0.98808063  0.12072409  0.83753211     0.73890
C1254       C  0.55856642  0.18141714  0.81969499    -0.07390
C1255       C  0.91114196  0.22536846  0.91330080    -0.06950
N1256       N  0.52577693  0.07039320  0.93091408    -0.26480
N1257       N  0.92404267  0.23512146  0.84985311    -0.47240
H1258       H  0.57651642  0.24748365  0.90571732     0.06410
C1259       C  0.55032647  0.00529276  0.85194473    -0.07360
Cl1260     Cl  0.98649073  0.12021219  0.88376020    -0.50360
C1261       C  0.90081276  0.02414470  0.82487765     0.42170
H1262       H  0.56416930  0.08685706  0.96192527     0.06380
N1263       N  0.55074271  0.05440420  0.81953292    -0.47070
C1264       C  0.62678927  0.35432757  0.75261651     0.00120
C1265       C  0.63073006  0.39936770  0.75386887     0.00120
C1266       C  0.85456414  0.35387211  0.75424042     0.00120
C1267       C  0.85939203  0.39783380  0.75019706     0.00120
C1268       C  0.61397635  0.14509134  0.25006779     0.00120
C1269       C  0.61520287  0.10031917  0.25065113     0.00120
C1270       C  0.86131467  0.14584855  0.24825292     0.00120
C1271       C  0.86387689  0.10145660  0.24780506     0.00120
C1272       C  0.88442890  0.46335485  0.06574559     0.42020
N1273       N  0.94072411  0.45740455  0.08517795     0.00910
C1274       C  0.56864186  0.28234801  0.08727431    -0.06970
H1275       H  0.90532951  0.24500798  0.09828132     0.06400
C1276       C  0.91475794  0.32125226  0.17866628    -0.07320
Co1277     Co  0.98627095  0.38001940  0.06930387     0.74180
N1278       N  0.94482474  0.29934387  0.08883199    -0.26500
Co1279     Co  0.98825109  0.30158204  0.11727305     0.74070
C1280       C  0.90019694  0.27783145  0.17196101     0.42120
N1281       N  0.94089388  0.43274441  0.15882411     0.00520
N1282       N  0.94318318  0.30176679  0.14448016     0.00630
N1283       N  0.56418181  0.33446856  0.05676817    -0.47350
H1284       H  0.89709402  0.40482148  0.04141518     0.06390
N1285       N  0.94420042  0.32929234  0.07063552     0.00910
N1286       N  0.52979651  0.30370272  0.14651460     0.00650
C1287       C  0.56532364  0.27860628  0.17757496     0.42260
N1288       N  0.94240842  0.46164130  0.14004127    -0.25950
C1289       C  0.55791620  0.43801787  0.05161112    -0.06870
N1290       N  0.90780411  0.48138887  0.08351971    -0.47060
N1291       N  0.55112731  0.26985171  0.15446200    -0.47280
C1292       C  0.57944382  0.47633053  0.06040571     0.42030
N1293       N  0.53263930  0.33489317  0.07174074     0.00900
N1294       N  0.52902117  0.46266775  0.14155115    -0.25980
N1295       N  0.94039066  0.42536439  0.06920589    -0.26470
N1296       N  0.52873143  0.43298271  0.16006011     0.00540
H1297       H  0.55864133  0.52505360  0.13721930     0.06430
H1298       H  0.55222997  0.33893488  0.20075257     0.06470
N1299       N  0.53428776  0.30488562  0.08996285    -0.26520
N1300       N  0.94154068  0.33308315  0.16092656    -0.26130
N1301       N  0.52980674  0.46111576  0.08496802     0.00910
C1302       C  0.89281097  0.28839467  0.06296965     0.42300
C1303       C  0.91703428  0.49383549  0.14432363    -0.07380
N1304       N  0.52809325  0.33435480  0.16333340    -0.26130
H1305       H  0.91005019  0.33821796  0.19591915     0.06450
N1306       N  0.91368643  0.32406471  0.05493118    -0.47350
H1307       H  0.91501026  0.52376593  0.13320114     0.06440
C1308       C  0.57127777  0.48171269  0.17230874     0.42140
C1309       C  0.90618051  0.42695586  0.05582889    -0.06880
Co1310     Co  0.98586437  0.46140928  0.11271787     0.73820
N1311       N  0.91626239  0.44514306  0.17681577    -0.47070
C1312       C  0.58895861  0.30256052  0.06506923     0.42400
N1313       N  0.56049847  0.48879488  0.08143768    -0.47060
Co1314     Co  0.98467970  0.38344170  0.16117529     0.73890
C1315       C  0.55065393  0.32205013  0.18323204    -0.07390
C1316       C  0.91342516  0.27191736  0.08568592    -0.06950
N1317       N  0.52829196  0.43073892  0.06806036    -0.26480
N1318       N  0.91956749  0.26817858  0.15061839    -0.47240
H1319       H  0.57795173  0.25572523  0.09955510     0.06410
C1320       C  0.55499777  0.49443678  0.14754442    -0.07360
Cl1321     Cl  0.98651226  0.38153206  0.11529108    -0.50360
C1322       C  0.89943510  0.48318063  0.16868884     0.42170
H1323       H  0.56462516  0.41794983  0.03583689     0.06380
N1324       N  0.55276738  0.44363962  0.17891455    -0.47070
C1325       C  0.91106526  0.05379853  0.18903189    -0.09600
C1326       C  0.88650966  0.51692426  0.18598731     0.06600
C1327       C  0.85162601  0.51225099  0.20040049    -0.03360
C1328       C  0.84312627  0.04291442  0.21844221    -0.07810
C1329       C  0.87080899  0.07647422  0.22431050     0.05720
C1330       C  0.90553063  0.08138916  0.20914756    -0.02840
Br1331     Br  0.94993668  0.11933681  0.21656196    -0.02530
H1332       H  0.93693063  0.05903926  0.17699152     0.09630
H1333       H  0.81519056  0.03890289  0.22844759     0.07650
Br1334     Br  0.81454484  0.46494498  0.19582321    -0.02960
C1335       C  0.85474963  0.17552298  0.20337960    -0.09600
C1336       C  0.87405307  0.17591623  0.22699822     0.06600
C1337       C  0.90250356  0.20929750  0.23157192    -0.03360
C1338       C  0.90865352  0.24281774  0.21386223    -0.07810
C1339       C  0.88887050  0.24326293  0.19062790     0.05720
C1340       C  0.86242861  0.20864477  0.18510442    -0.02840
Br1341     Br  0.83478503  0.20663926  0.15345607    -0.02530
H1342       H  0.83277782  0.15035773  0.19947533     0.09630
H1343       H  0.93028123  0.26807336  0.21802730     0.07650
Br1344     Br  0.93741306  0.20894457  0.26046781    -0.02960
C1345       C  0.56570251  0.07073351  0.21983021    -0.09600
C1346       C  0.60575934  0.07476529  0.22776458     0.06600
C1347       C  0.63505640  0.04817412  0.21672446    -0.03360
C1348       C  0.62400837  0.51944164  0.19776774    -0.07810
C1349       C  0.58353033  0.51361704  0.19126499     0.05720
C1350       C  0.55437155  0.03786160  0.20352931    -0.02840
Br1351     Br  0.99945343  0.01982241  0.20306430    -0.02530
H1352       H  0.54259459  0.08911276  0.22893795     0.09630
H1353       H  0.64677480  0.50011446  0.18901719     0.07650
Br1354     Br  0.69040000  0.04879440  0.22723287    -0.02960
C1355       C  0.60695685  0.21436791  0.18930109    -0.09600
C1356       C  0.57642519  0.24306400  0.19576645     0.06600
C1357       C  0.55553675  0.23507083  0.21855670    -0.03360
C1358       C  0.56524069  0.19913718  0.23404097    -0.07810
C1359       C  0.59740745  0.17189017  0.22845971     0.05720
C1360       C  0.61859251  0.18014026  0.20575788    -0.02840
Br1361     Br  0.66668080  0.15030236  0.19751762    -0.02530
H1362       H  0.62332367  0.22004142  0.17189649     0.09630
H1363       H  0.54939269  0.19431431  0.25170547     0.07650
Br1364     Br  0.51446008  0.27221790  0.23056162    -0.02960
C1365       C  0.55990946  0.47537987  0.78669067    -0.09600
C1366       C  0.58004300  0.98156657  0.80958668     0.06600
C1367       C  0.61306513  0.95484367  0.81585673    -0.03760
C1368       C  0.62756492  0.42548202  0.79837364    -0.07810
C1369       C  0.60903647  0.42132144  0.77470289     0.05720
C1370       C  0.57381879  0.44531108  0.76950946    -0.02840
Br1371     Br  0.54664674  0.44200899  0.73785800    -0.02530
H1372       H  0.53378693  0.49469961  0.78188669     0.09630
H1373       H  0.65555496  0.40918391  0.80242153     0.07650
Br1374     Br  0.64245953  0.96099331  0.84670074    -0.02960
C1375       C  0.63221835  0.31925824  0.79604246    -0.09600
C1376       C  0.60941535  0.32665824  0.77392169     0.06600
C1377       C  0.57548271  0.29956336  0.76998917    -0.03360
C1378       C  0.56653600  0.26511590  0.78685269    -0.07810
C1379       C  0.58859970  0.25853003  0.80909219     0.05720
C1380       C  0.62107952  0.28679712  0.81400267    -0.02840
Br1381     Br  0.65257605  0.28026829  0.84412814    -0.02530
H1382       H  0.65991559  0.33719661  0.79883753     0.09630
H1383       H  0.54111389  0.24407101  0.78288512     0.07650
Br1384     Br  0.53915389  0.30785313  0.74232562    -0.02960
C1385       C  0.84769544  0.43117989  0.79222872    -0.09600
C1386       C  0.87218623  0.42693908  0.77093142     0.06600
C1387       C  0.90541537  0.45545845  0.76766801    -0.03360
C1388       C  0.91300390  0.98801987  0.78485217    -0.07810
C1389       C  0.88872659  0.99216271  0.80605217     0.05720
C1390       C  0.85595581  0.46329207  0.80981822    -0.02840
Br1391     Br  0.82056523  0.46813267  0.83796940    -0.02530
H1392       H  0.82137593  0.41046727  0.79471981     0.09630
H1393       H  0.93886402  0.00933234  0.78199579     0.07650
Br1394     Br  0.94185784  0.45197632  0.74016288    -0.02960
C1395       C  0.85086352  0.27084566  0.80750780    -0.09600
C1396       C  0.89201326  0.26489681  0.81166721     0.06600
C1397       C  0.91966972  0.29550970  0.80134073    -0.03360
C1398       C  0.90638598  0.32874395  0.78495614    -0.07810
C1399       C  0.86553817  0.33199337  0.77866546     0.05720
C1400       C  0.83747834  0.30448294  0.79134282    -0.02840
Br1401     Br  0.78069425  0.31129408  0.78680355    -0.02530
H1402       H  0.82919796  0.24890621  0.81647252     0.09630
H1403       H  0.92832623  0.34955700  0.77536433     0.07650
Br1404     Br  0.97611565  0.29178620  0.80786312    -0.02960
C1405       C  0.63003827  0.31086300  0.02676560    -0.09600
C1406       C  0.62649219  0.29177091  0.05092235     0.06600
C1407       C  0.65807267  0.26432062  0.05950766    -0.03360
C1408       C  0.69041389  0.25488108  0.04328995    -0.07810
C1409       C  0.69224235  0.27239428  0.01844862     0.05720
C1410       C  0.66143818  0.30140599  0.01073888    -0.02840
Br1411     Br  0.65716754  0.32801801  0.97774655    -0.02530
H1412       H  0.60705081  0.33256603  0.01950539     0.09630
H1413       H  0.71271238  0.23158321  0.04959992     0.07650
Br1414     Br  0.65932727  0.23849852  0.09272060    -0.02960
C1415       C  0.80619408  0.22287688  0.03453318    -0.09600
C1416       C  0.78369970  0.25653225  0.02294637     0.06600
C1417       C  0.79495986  0.29940823  0.02767691    -0.03360
C1418       C  0.82935188  0.30876290  0.04167746    -0.07810
C1419       C  0.85334662  0.27554854  0.05198767     0.05720
C1420       C  0.84061332  0.23196976  0.04911353    -0.02840
Br1421     Br  0.87167190  0.18362883  0.06136678    -0.02530
H1422       H  0.79884068  0.18938737  0.03056449     0.09630
H1423       H  0.83862385  0.34238909  0.04327801     0.07650
Br1424     Br  0.76812922  0.34602082  0.01168725    -0.02960
C1425       C  0.66389667  0.20022920  0.99017444    -0.09600
C1426       C  0.69261317  0.22897689  0.97957004     0.06600
C1427       C  0.68750161  0.24308010  0.95413398    -0.03360
C1428       C  0.65137580  0.23328534  0.94155912    -0.07810
C1429       C  0.62017271  0.20999482  0.95387574     0.05720
C1430       C  0.62731451  0.19262530  0.97841368    -0.02840
Br1431     Br  0.58781767  0.16212122  0.99881289    -0.02530
H1432       H  0.66783495  0.18799106  0.00936298     0.09630
H1433       H  0.64714413  0.24538560  0.92240183     0.07650
Br1434     Br  0.72469653  0.28100569  0.93651533    -0.02960
C1435       C  0.82437255  0.18540865  0.95562062    -0.09600
C1436       C  0.85079854  0.21865984  0.94686309     0.06600
C1437       C  0.84209085  0.26191978  0.95241782    -0.03360
C1438       C  0.80962778  0.27059629  0.96806648    -0.07810
C1439       C  0.78439073  0.23714483  0.97794560     0.05720
C1440       C  0.79074373  0.19456829  0.97034672    -0.02840
Br1441     Br  0.75490663  0.14830560  0.98036506    -0.02530
H1442       H  0.83070169  0.15192343  0.95172439     0.09630
H1443       H  0.80517493  0.30376347  0.97329028     0.07650
Br1444     Br  0.87611394  0.31003988  0.94224857    -0.02960
C1445       C  0.64524722  0.45281246  0.04715166    -0.09600
C1446       C  0.62108845  0.48777873  0.05261378     0.06600
C1447       C  0.63412849  0.52994695  0.04504056    -0.03360
C1448       C  0.66898122  0.53536257  0.02992902    -0.07810
C1449       C  0.68990292  0.49889146  0.02133596     0.05720
C1450       C  0.67680357  0.45773239  0.03041557    -0.02840
Br1451     Br  0.69181764  0.40566806  0.01619141    -0.02530
H1452       H  0.63594771  0.42014219  0.05301833     0.09630
H1453       H  0.67734197  0.06764128  0.02304386     0.07650
Br1454     Br  0.60298305  0.57979911  0.05250498    -0.02960
C1455       C  0.77887194  0.46646069  0.04006712    -0.09600
C1456       C  0.78211624  0.50165608  0.02256548     0.06600
C1457       C  0.81600771  0.52992720  0.02496686    -0.03360
C1458       C  0.84746594  0.51924627  0.04142637    -0.07810
C1459       C  0.84631870  0.48070373  0.05579881     0.05720
C1460       C  0.81072632  0.45565976  0.05637801    -0.02840
Br1461     Br  0.80556866  0.40479501  0.07793059    -0.02530
H1462       H  0.75401477  0.44409480  0.03936749     0.09630
H1463       H  0.87451399  0.53925563  0.04132470     0.07650
Br1464     Br  0.82446327  0.08158601  0.00487608    -0.02960
C1465       C  0.67848881  0.05191487  0.96885642    -0.09600
C1466       C  0.69191428  0.00980446  0.97443703     0.06600
C1467       C  0.67579443  0.97558182  0.96015788    -0.03360
C1468       C  0.63991704  0.98198985  0.94626963    -0.07810
C1469       C  0.62392002  0.02388445  0.94348458     0.05720
C1470       C  0.64760636  0.05890850  0.95154216    -0.02840
Br1471     Br  0.64370878  0.11484807  0.93550970    -0.02530
H1472       H  0.69249276  0.07946816  0.97767134     0.09630
H1473       H  0.62491124  0.95470491  0.93772949     0.07650
Br1474     Br  0.70577203  0.42407416  0.95480277    -0.02960
C1475       C  0.77769214  0.03669363  0.95655716    -0.09600
C1476       C  0.78197763  0.00248080  0.97461115     0.06600
C1477       C  0.81506058  0.97406391  0.97174742    -0.03360
C1478       C  0.84407630  0.98264079  0.95340730    -0.07810
C1479       C  0.84191548  0.01967729  0.93796930     0.05720
C1480       C  0.80726814  0.04525400  0.93833430    -0.02840
Br1481     Br  0.80071658  0.09376498  0.91522928    -0.02530
H1482       H  0.75392382  0.05984057  0.95801642     0.09630
H1483       H  0.87089365  0.46288770  0.95309083     0.07650
Br1484     Br  0.82753214  0.42600723  0.99360361    -0.02960
C1485       C  0.65121937  0.00281934  0.71340708    -0.09600
C1486       C  0.66484557  0.98669691  0.69072836     0.06600
C1487       C  0.67697248  0.44271667  0.69081700    -0.03360
C1488       C  0.66984206  0.41543556  0.71210982    -0.07810
C1489       C  0.65036684  0.43018238  0.73379520     0.05720
C1490       C  0.64806838  0.47637405  0.73512710    -0.02840
Br1491     Br  0.65435408  0.00874286  0.76523922    -0.02530
H1492       H  0.64674546  0.03746780  0.71501368     0.09630
H1493       H  0.68154649  0.38322949  0.71147827     0.07650
Br1494     Br  0.70694040  0.41782267  0.66416535    -0.02960
C1495       C  0.63524776  0.29307392  0.69107097    -0.09600
C1496       C  0.66355060  0.26135392  0.69794567     0.06600
C1497       C  0.68281445  0.26393230  0.72158545    -0.03360
C1498       C  0.67168991  0.29603109  0.73822208    -0.07810
C1499       C  0.64191855  0.32666994  0.73194082     0.05720
C1500       C  0.62415277  0.32535727  0.70767528    -0.02840
Br1501     Br  0.58583044  0.36704845  0.69530419    -0.02530
H1502       H  0.62146397  0.29262088  0.67257349     0.09630
H1503       H  0.68631072  0.29688872  0.75644892     0.07650
Br1504     Br  0.72645313  0.22706416  0.73192825    -0.02960
C1505       C  0.85693779  0.45014326  0.68366033    -0.09600
C1506       C  0.82945381  0.98362018  0.68743524     0.06600
C1507       C  0.80803347  0.98370682  0.71035643    -0.03360
C1508       C  0.81697615  0.45338926  0.72949674    -0.07810
C1509       C  0.84651313  0.42176197  0.72659390     0.05720
C1510       C  0.86573112  0.41928417  0.70292986    -0.02840
Br1511     Br  0.90681771  0.37801811  0.69614321    -0.02530
H1512       H  0.87286218  0.94910999  0.66589630     0.09630
H1513       H  0.80110243  0.45509289  0.74720884     0.07650
Br1514     Br  0.76538461  0.02325745  0.71729018    -0.02960
C1515       C  0.80707973  0.29162844  0.70017975    -0.09600
C1516       C  0.83617121  0.25949143  0.69682224     0.06600
C1517       C  0.86994114  0.25798821  0.71251462    -0.03360
C1518       C  0.87556406  0.28992565  0.73023056    -0.07810
C1519       C  0.84694075  0.32283379  0.73360809     0.05720
C1520       C  0.81157548  0.32240738  0.71886488    -0.02840
Br1521     Br  0.76680990  0.35941281  0.72472462    -0.02530
H1522       H  0.77998933  0.29180485  0.68877543     0.09630
H1523       H  0.90276015  0.28886885  0.74142537     0.07650
Br1524     Br  0.90932053  0.21322571  0.71027887    -0.02960
C1525       C  0.61817323  0.50747735  0.30006322    -0.09600
C1526       C  0.65453892  0.51535373  0.31226492     0.06600
C1527       C  0.67548468  0.05485253  0.30679715    -0.03360
C1528       C  0.66252034  0.08229825  0.28687486    -0.07810
C1529       C  0.62652584  0.07367999  0.27385014     0.05720
C1530       C  0.60305032  0.03709306  0.28211115    -0.02840
Br1531     Br  0.54824867  0.02712362  0.27241523    -0.02530
H1532       H  0.60068700  0.47861740  0.30517016     0.09630
H1533       H  0.68114589  0.10999750  0.28134565     0.07650
Br1534     Br  0.72198470  0.07340250  0.32534838    -0.02960
C1535       C  0.62229826  0.20785016  0.31111586    -0.09600
C1536       C  0.65154522  0.23935441  0.30420008     0.06600
C1537       C  0.66973947  0.23702867  0.28031111    -0.03360
C1538       C  0.65935134  0.20338025  0.26445865    -0.07810
C1539       C  0.62919536  0.17276366  0.27084913     0.05720
C1540       C  0.60998875  0.17572210  0.29437051    -0.02840
Br1541     Br  0.56455917  0.13992089  0.30364355    -0.02530
H1542       H  0.60788336  0.20924253  0.32931403     0.09630
H1543       H  0.67374078  0.20236711  0.24624654     0.07650
Br1544     Br  0.70854441  0.27840597  0.26732460    -0.02960
C1545       C  0.87818488  0.02696748  0.30562443    -0.09600
C1546       C  0.83957567  0.50858217  0.30795423     0.06600
C1547       C  0.80885737  0.02330708  0.29152051    -0.03360
C1548       C  0.81611228  0.05831012  0.27479393    -0.07810
C1549       C  0.85528618  0.07416531  0.27088686     0.05720
C1550       C  0.88663048  0.05799276  0.28641955    -0.02840
Br1551     Br  0.94153398  0.07594777  0.28155039    -0.02530
H1552       H  0.90219921  0.51544192  0.31783621     0.09630
H1553       H  0.79177037  0.07025464  0.26297037     0.07650
Br1554     Br  0.75840615  0.49312983  0.28819582    -0.02960
C1555       C  0.81070467  0.23299071  0.28391048    -0.09600
C1556       C  0.83505643  0.23520231  0.30536586     0.06600
C1557       C  0.86233460  0.20148956  0.31068957    -0.03360
C1558       C  0.86754022  0.16863911  0.29334127    -0.07810
C1559       C  0.84577510  0.16889899  0.27058349     0.05720
C1560       C  0.81491955  0.19953947  0.26705450    -0.02840
Br1561     Br  0.77731853  0.19657784  0.23965283    -0.02530
H1562       H  0.78795941  0.25714769  0.28039691     0.09630
H1563       H  0.89136896  0.14567424  0.29662424     0.07650
Br1564     Br  0.89580018  0.20132866  0.34016507    -0.02960
C1565       C  0.57026443  0.29020784  0.53215172    -0.09600
C1566       C  0.54489772  0.25447937  0.52702051     0.06600
C1567       C  0.54979578  0.21559326  0.54165552    -0.03360
C1568       C  0.58305011  0.21108171  0.55747229    -0.07810
C1569       C  0.61088665  0.24495916  0.55987549     0.05720
C1570       C  0.60295616  0.28570422  0.54866177    -0.02840
Br1571     Br  0.63914686  0.33379437  0.55290484    -0.02530
H1572       H  0.56672487  0.32065653  0.52165751     0.09630
H1573       H  0.58877113  0.17979835  0.56667637     0.07650
Br1574     Br  0.51545528  0.16569833  0.54076160    -0.02960
C1575       C  0.94968089  0.27150734  0.54236958    -0.09600
C1576       C  0.95649291  0.24224100  0.52301714     0.06600
C1577       C  0.93162358  0.20549356  0.52132674    -0.03360
C1578       C  0.89973967  0.19917023  0.53750467    -0.07810
C1579       C  0.88919739  0.23075275  0.55467124     0.05720
C1580       C  0.91574609  0.26637504  0.55804925    -0.02840
Br1581     Br  0.90582739  0.31087998  0.58153772    -0.02530
H1582       H  0.96836763  0.30042122  0.54363731     0.09630
H1583       H  0.88140136  0.17032931  0.53515803     0.07650
Br1584     Br  0.93795471  0.16396556  0.49592707    -0.02960
C1585       C  0.57360355  0.22440208  0.47575412    -0.09600
C1586       C  0.54842900  0.25975907  0.48003317     0.06600
C1587       C  0.55300424  0.29816283  0.46522653    -0.03360
C1588       C  0.58317476  0.30069651  0.44699105    -0.07810
C1589       C  0.60898200  0.26554137  0.44331869     0.05720
C1590       C  0.60305229  0.22658938  0.45717988    -0.02840
Br1591     Br  0.63805191  0.17793333  0.45401900    -0.02530
H1592       H  0.57171513  0.19575555  0.48791181     0.09630
H1593       H  0.58875041  0.33150851  0.43710381     0.07650
Br1594     Br  0.52352745  0.34987597  0.47159383    -0.02960
C1595       C  0.91591269  0.25052106  0.44140347    -0.09600
C1596       C  0.88346360  0.27370783  0.45096984     0.06600
C1597       C  0.88954961  0.29601552  0.47363671    -0.03360
C1598       C  0.92747243  0.29879726  0.48415396    -0.07810
C1599       C  0.95710426  0.26907615  0.47812450     0.05720
C1600       C  0.95202104  0.24613005  0.45541125    -0.02840
Br1601     Br  0.99056933  0.20643315  0.44294379    -0.02530
H1602       H  0.91231196  0.23353210  0.42398416     0.09630
H1603       H  0.93081507  0.31751237  0.50095220     0.07650
Br1604     Br  0.84731720  0.31341031  0.49588146    -0.02960
C1605       C  0.55112500  0.00305473  0.53542223    -0.09600
C1606       C  0.53814523  0.03091156  0.51549149     0.06600
C1607       C  0.55611070  0.07205112  0.51295108    -0.03360
C1608       C  0.58891358  0.08316307  0.52802761    -0.07810
C1609       C  0.60584194  0.05316420  0.54561681     0.05720
C1610       C  0.58507203  0.01335367  0.55010647    -0.02840
Br1611     Br  0.60297024  0.97007513  0.57423546    -0.02530
H1612       H  0.53709608  0.47133118  0.53818615     0.09630
H1613       H  0.60198322  0.11512703  0.52488579     0.07650
Br1614     Br  0.53822671  0.11314359  0.48788564    -0.02960
C1615       C  0.88229101  0.06127984  0.51465830    -0.09600
C1616       C  0.87806038  0.04622450  0.53972803     0.06600
C1617       C  0.90960779  0.02127475  0.55041866    -0.03360
C1618       C  0.94371771  0.01154550  0.53584373    -0.07810
C1619       C  0.94690658  0.02540848  0.51033665     0.05720
C1620       C  0.91558515  0.05126057  0.50012448    -0.02840
Br1621     Br  0.91500393  0.07397377  0.46604039    -0.02530
H1622       H  0.85883915  0.08040429  0.50573747     0.09630
H1623       H  0.96665742  0.99097359  0.54413849     0.07650
Br1624     Br  0.90771213  0.99940548  0.58455116    -0.02960
C1625       C  0.59460294  0.49429101  0.44165390    -0.09600
C1626       C  0.61671445  0.46066509  0.45320733     0.06600
C1627       C  0.60159947  0.44141394  0.47596515    -0.03360
C1628       C  0.56476930  0.45403199  0.48537052    -0.07810
C1629       C  0.54496742  0.49052693  0.47559084     0.05720
C1630       C  0.55989501  0.01036949  0.45286016    -0.02840
Br1631     Br  0.53630936  0.05942117  0.43559584    -0.02530
H1632       H  0.60526361  0.00934954  0.42415935     0.09630
H1633       H  0.55375306  0.43794237  0.50240118     0.07650
Br1634     Br  0.63104275  0.40488479  0.49919921    -0.02960
C1635       C  0.95148700  0.48806451  0.44972998    -0.09600
C1636       C  0.95766047  0.47442448  0.47485247     0.06600
C1637       C  0.93475261  0.43926692  0.48444016    -0.03360
C1638       C  0.90037379  0.42633409  0.47161557    -0.07810
C1639       C  0.88909298  0.44691054  0.44862023     0.05720
C1640       C  0.91704096  0.47522377  0.43659599    -0.02840
Br1641     Br  0.90881349  0.00068839  0.40357038    -0.02530
H1642       H  0.96948116  0.01386728  0.44153331     0.09630
H1643       H  0.88153790  0.40196215  0.48078040     0.07650
Br1644     Br  0.94748322  0.41042227  0.51594689    -0.02960
C1645       C  0.97644507  0.50470576  0.49292969     0.00120
C1646       C  0.51704378  0.01187251  0.49339203     0.00120
C1647       C  0.52242248  0.75660354  0.50251836     0.00120
C1648       C  0.98169566  0.75452941  0.50078863     0.00120
C1649       C  0.84823482  0.93829997  0.43862292     0.42020
N1650       N  0.79506667  0.93655006  0.41558177     0.00910
C1651       C  0.66877192  0.75856077  0.41027348    -0.06970
H1652       H  0.84010430  0.73773154  0.40129876     0.06400
C1653       C  0.81242833  0.81320528  0.31681101    -0.07320
Co1654     Co  0.74679641  0.85728075  0.42958653     0.74180
N1655       N  0.79294687  0.78360883  0.40958252    -0.26500
Co1656     Co  0.74815230  0.78645822  0.38112315     0.74070
C1657       C  0.82765110  0.76963535  0.32336560     0.42120
N1658       N  0.79249677  0.92222748  0.34071369     0.00520
N1659       N  0.79124897  0.79219063  0.35348178     0.00630
N1660       N  0.67145730  0.80715742  0.44125997    -0.47350
H1661       H  0.82613315  0.88034775  0.46282256     0.06390
N1662       N  0.78916869  0.81032997  0.42817720     0.00910
N1663       N  0.70471532  0.79128247  0.35262140     0.00650
C1664       C  0.66481233  0.77138647  0.32295058     0.42260
N1665       N  0.79308059  0.94986359  0.35926014    -0.25950
C1666       C  0.67438917  0.90530614  0.44670016    -0.06870
N1667       N  0.82939216  0.95829292  0.41880117    -0.47060
N1668       N  0.68237533  0.75840570  0.34480413    -0.47280
C1669       C  0.65425481  0.94574768  0.44103793     0.42030
N1670       N  0.70306281  0.81068520  0.42656010     0.00900
N1671       N  0.70755853  0.95221332  0.36017389    -0.25980
N1672       N  0.79113420  0.90374761  0.43184125    -0.26470
N1673       N  0.70555582  0.92562935  0.34110024     0.00540
H1674       H  0.68494537  0.01630597  0.36612493     0.06430
H1675       H  0.67439431  0.83670456  0.30122386     0.06470
N1676       N  0.70269819  0.78286774  0.40825767    -0.26520
N1677       N  0.78991412  0.82433305  0.33644071    -0.26130
N1678       N  0.70532380  0.93976046  0.41631591     0.00910
C1679       C  0.84421992  0.77781713  0.43759140     0.42300
C1680       C  0.81727807  0.98347289  0.35262125    -0.07380
N1681       N  0.70365830  0.82542288  0.33691420    -0.26130
H1682       H  0.81354986  0.83067895  0.29884948     0.06450
N1683       N  0.81826750  0.80761555  0.44473118    -0.47350
H1684       H  0.81979982  0.01350724  0.36258998     0.06440
C1685       C  0.66991223  0.98116609  0.32982877     0.42140
C1686       C  0.82201806  0.90358451  0.44765412    -0.06880
Co1687     Co  0.75041943  0.94564212  0.38813255     0.73820
N1688       N  0.81457776  0.93591856  0.32133947    -0.47070
C1689       C  0.64828416  0.77547768  0.43222305     0.42400
N1690       N  0.67472147  0.96561925  0.42154456    -0.47060
Co1691     Co  0.74761303  0.87457560  0.33848243     0.73890
C1692       C  0.67843832  0.81639909  0.31798065    -0.07390
C1693       C  0.82765519  0.76137218  0.41364511    -0.06950
N1694       N  0.70506237  0.90462046  0.43096862    -0.26480
N1695       N  0.81286306  0.75908993  0.34627400    -0.47240
H1696       H  0.65895657  0.73397094  0.39743681     0.06410
C1697       C  0.68553056  0.98749472  0.35498880    -0.07360
Cl1698     Cl  0.74810173  0.86614105  0.38398750    -0.50360
C1699       C  0.83156124  0.97428297  0.32733897     0.42170
H1700       H  0.66754130  0.87936731  0.45991366     0.06380
N1701       N  0.68364254  0.94229659  0.32231650    -0.47070
C1702       C  0.84135294  0.56013403  0.55360638     0.42020
N1703       N  0.79052720  0.56481826  0.57873720     0.00910
C1704       C  0.67310590  0.74667049  0.59090972    -0.06970
H1705       H  0.84217135  0.76083711  0.60313473     0.06400
C1706       C  0.81647324  0.68296812  0.68167631    -0.07320
Co1707     Co  0.74631728  0.64765435  0.56757166     0.74180
N1708       N  0.79456662  0.71854346  0.59039126    -0.26500
Co1709     Co  0.75103468  0.71455579  0.61849064     0.74070
C1710       C  0.83028936  0.72782276  0.67699808     0.42120
N1711       N  0.79262360  0.57546029  0.65426182     0.00520
N1712       N  0.79494794  0.70712851  0.64562786     0.00630
N1713       N  0.67210349  0.70155342  0.55811743    -0.47350
H1714       H  0.82425083  0.62362374  0.53263533     0.06390
N1715       N  0.79100636  0.69393968  0.57071285     0.00910
N1716       N  0.70895798  0.70888655  0.64720010     0.00650
C1717       C  0.67502981  0.72938227  0.67901063     0.42260
N1718       N  0.78996637  0.54824677  0.63550134    -0.25950
C1719       C  0.66995691  0.60233232  0.54996557    -0.06870
N1720       N  0.82195827  0.54004176  0.57339324    -0.47060
N1721       N  0.68952045  0.74220204  0.65630695    -0.47280
C1722       C  0.64571902  0.56445874  0.55724392     0.42030
N1723       N  0.70414972  0.69526989  0.57236461     0.00900
N1724       N  0.70513365  0.54956716  0.63683590    -0.25980
N1725       N  0.78875695  0.59970014  0.56375351    -0.26470
N1726       N  0.70632693  0.57615734  0.65590455     0.00540
H1727       H  0.68171550  0.48482282  0.63285747     0.06430
H1728       H  0.68580562  0.66409945  0.70027890     0.06470
N1729       N  0.70554847  0.72095466  0.59171960    -0.26520
N1730       N  0.79444398  0.67316206  0.66138487    -0.26130
N1731       N  0.69965483  0.56645816  0.58025349     0.00910
C1732       C  0.84826041  0.72582058  0.56539300     0.42300
C1733       C  0.80944601  0.51157784  0.64223559    -0.07380
N1734       N  0.70885652  0.67455692  0.66274726    -0.26130
H1735       H  0.81667036  0.66421199  0.69922524     0.06450
N1736       N  0.82184168  0.69769226  0.55545614    -0.47350
H1737       H  0.80741404  0.48140440  0.63237072     0.06440
C1738       C  0.67366201  0.51966163  0.67031033     0.42140
C1739       C  0.81869884  0.59906510  0.54718235    -0.06880
Co1740     Co  0.74623627  0.55630363  0.60738958     0.73820
N1741       N  0.81263594  0.55874842  0.67369009    -0.47070
C1742       C  0.65129275  0.73353848  0.56848691     0.42400
N1743       N  0.66624086  0.54323558  0.57611685    -0.47060
Co1744     Co  0.75051269  0.62461211  0.65848771     0.73890
C1745       C  0.68751570  0.68410985  0.68322755    -0.07390
C1746       C  0.83006365  0.74015896  0.58884839    -0.06950
N1747       N  0.70163463  0.60135247  0.56531429    -0.26480
N1748       N  0.81532848  0.74042068  0.65444685    -0.47240
H1749       H  0.66512506  0.77009102  0.60474501     0.06410
C1750       C  0.68414136  0.51364391  0.64385958    -0.07360
Cl1751     Cl  0.74847365  0.63561932  0.61313302    -0.50360
C1752       C  0.82391577  0.51837046  0.66787155     0.42170
H1753       H  0.66467216  0.62738134  0.53571802     0.06380
N1754       N  0.68802991  0.55938730  0.67599684    -0.47070
C1755       C  0.75748322  0.50199907  0.99852773     0.00120
C1756       C  0.71587953  0.50261574  0.99813319     0.00120
C1757       C  0.71787968  0.75188459  0.99857205     0.00120
C1758       C  0.75889422  0.74671989  0.00019008     0.00120
C1759       C  0.87991892  0.53762077  0.92828358     0.42020
N1760       N  0.93777390  0.54312421  0.91106057     0.00910
C1761       C  0.56545631  0.72021623  0.91710395    -0.06970
H1762       H  0.90352942  0.75299694  0.90122614     0.06400
C1763       C  0.92131539  0.68684773  0.81886303    -0.07320
Co1764     Co  0.98329343  0.61933210  0.92982019     0.74180
N1765       N  0.94318837  0.69945527  0.91041122    -0.26500
Co1766     Co  0.98948985  0.69982620  0.88335351     0.74070
C1767       C  0.90590062  0.72829598  0.82768749     0.42120
N1768       N  0.94270723  0.57282237  0.83781253     0.00520
N1769       N  0.94727723  0.70143560  0.85484239     0.00630
N1770       N  0.55732662  0.66761763  0.94715533    -0.47350
H1771       H  0.89324745  0.59294168  0.95486800     0.06390
N1772       N  0.94150607  0.66838617  0.92799397     0.00910
N1773       N  0.53416415  0.69882608  0.85556871     0.00650
C1774       C  0.57547086  0.72339473  0.82707732     0.42260
N1775       N  0.94182493  0.54254728  0.85595314    -0.25950
C1776       C  0.55728280  0.56623096  0.94635461    -0.06870
N1777       N  0.90382961  0.51996688  0.91097076    -0.47060
N1778       N  0.55831319  0.73205463  0.84936606    -0.47280
C1779       C  0.58142169  0.53200834  0.93603168     0.42030
N1780       N  0.52857750  0.66586649  0.93014059     0.00900
N1781       N  0.52791065  0.53951525  0.85744454    -0.25980
N1782       N  0.93756341  0.57368861  0.92786561    -0.26470
N1783       N  0.52942674  0.56863169  0.83865023     0.00540
H1784       H  0.55051175  0.47465363  0.86245745     0.06430
H1785       H  0.56080288  0.66604005  0.80172489     0.06470
N1786       N  0.53226258  0.69626550  0.91227840    -0.26520
N1787       N  0.94666320  0.67245952  0.83699476    -0.26130
N1788       N  0.52797271  0.54090445  0.91351107     0.00910
C1789       C  0.88916664  0.70624391  0.93500417     0.42300
C1790       C  0.91576297  0.51120434  0.84969398    -0.07380
N1791       N  0.53325074  0.66895869  0.83817592    -0.26130
H1792       H  0.91704067  0.67229689  0.80076808     0.06450
N1793       N  0.91007776  0.67130871  0.94294398    -0.47350
H1794       H  0.91201748  0.48033588  0.85974353     0.06440
C1795       C  0.56571414  0.51505414  0.82684313     0.42140
C1796       C  0.90254055  0.57191177  0.94011699    -0.06880
Co1797     Co  0.98408884  0.54074684  0.88483069     0.73820
N1798       N  0.91955380  0.56235388  0.81853004    -0.47070
C1799       C  0.58184148  0.70099320  0.94057654     0.42400
N1800       N  0.56139369  0.51741642  0.91559970    -0.47060
Co1801     Co  0.98809906  0.62077923  0.83748889     0.73890
C1802       C  0.55857144  0.68142949  0.81968456    -0.07390
C1803       C  0.91113657  0.72535655  0.91328912    -0.06950
N1804       N  0.52578707  0.57039047  0.93090187    -0.26480
N1805       N  0.92409462  0.73518873  0.84981751    -0.47240
H1806       H  0.57652090  0.74748362  0.90571100     0.06410
C1807       C  0.55033201  0.50529325  0.85192969    -0.07360
Cl1808     Cl  0.98650239  0.62023432  0.88371905    -0.50360
C1809       C  0.90082022  0.52419068  0.82482903     0.42170
H1810       H  0.56418341  0.58685458  0.96191128     0.06380
N1811       N  0.55075475  0.55440977  0.81952069    -0.47070
C1812       C  0.62679613  0.85436565  0.75261381     0.00120
C1813       C  0.63072453  0.89940692  0.75386833     0.00120
C1814       C  0.85463238  0.85393495  0.75418279     0.00120
C1815       C  0.85944339  0.89790046  0.75013150     0.00120
C1816       C  0.61398100  0.64508778  0.25006508     0.00120
C1817       C  0.61520515  0.60031593  0.25064889     0.00120
C1818       C  0.86132108  0.64583111  0.24825101     0.00120
C1819       C  0.86387928  0.60143893  0.24780335     0.00120
C1820       C  0.88442174  0.96335776  0.06575887     0.42020
N1821       N  0.94071951  0.95740667  0.08518742     0.00910
C1822       C  0.56863038  0.78233606  0.08727292    -0.06970
H1823       H  0.90532242  0.74501437  0.09828264     0.06400
C1824       C  0.91475732  0.82124367  0.17866993    -0.07320
Co1825     Co  0.98626614  0.88002472  0.06930816     0.74180
N1826       N  0.94482015  0.79934793  0.08883356    -0.26500
Co1827     Co  0.98824862  0.80158216  0.11727425     0.74070
C1828       C  0.90019696  0.77782338  0.17196292     0.42120
N1829       N  0.94089118  0.93274189  0.15883258     0.00520
N1830       N  0.94318160  0.80176378  0.14448231     0.00630
N1831       N  0.56417451  0.83446182  0.05676957    -0.47350
H1832       H  0.89708488  0.90482905  0.04142432     0.06390
N1833       N  0.94419545  0.82929827  0.07063811     0.00910
N1834       N  0.52978677  0.80369023  0.14651554     0.00650
C1835       C  0.56532242  0.77859519  0.17757202     0.42260
N1836       N  0.94240516  0.96163876  0.14004976    -0.25950
C1837       C  0.55790947  0.93801937  0.05162387    -0.06870
N1838       N  0.90779831  0.98138926  0.08353286    -0.47060
N1839       N  0.55112110  0.76984024  0.15446028    -0.47280
C1840       C  0.57943488  0.97632967  0.06042312     0.42030
N1841       N  0.53263213  0.83488762  0.07174277     0.00900
N1842       N  0.52901548  0.96265463  0.14156292    -0.25980
N1843       N  0.94038533  0.92536937  0.06921349    -0.26470
N1844       N  0.52872535  0.93296871  0.16007115     0.00540
H1845       H  0.55863356  0.02504156  0.13723221     0.06430
H1846       H  0.55223236  0.83892152  0.20075200     0.06470
N1847       N  0.53427812  0.80487678  0.08996319    -0.26520
N1848       N  0.94153901  0.83307796  0.16093020    -0.26130
N1849       N  0.52979894  0.96110779  0.08498238     0.00910
C1850       C  0.89280271  0.78840512  0.06297253     0.42300
C1851       C  0.91703316  0.99383446  0.14433273    -0.07380
N1852       N  0.52808591  0.83434109  0.16333535    -0.26130
H1853       H  0.91005006  0.83820660  0.19592380     0.06450
N1854       N  0.91367968  0.82407431  0.05493457    -0.47350
H1855       H  0.91501045  0.02376519  0.13321040     0.06440
C1856       C  0.57126944  0.98169981  0.17232110     0.42140
C1857       C  0.90617323  0.92696176  0.05583845    -0.06880
Co1858     Co  0.98585996  0.96140830  0.11272623     0.73820
N1859       N  0.91626256  0.94514305  0.17682538    -0.47070
C1860       C  0.58894908  0.80254946  0.06506848     0.42400
N1861       N  0.56048962  0.98878807  0.08145563    -0.47060
Co1862     Co  0.98467741  0.88343766  0.16118079     0.73890
C1863       C  0.55065236  0.82203742  0.18323133    -0.07390
C1864       C  0.91341861  0.77192396  0.08568756    -0.06950
N1865       N  0.52828529  0.93073542  0.06807204    -0.26480
N1866       N  0.91956690  0.76817419  0.15061947    -0.47240
H1867       H  0.57793813  0.75571012  0.09955206     0.06410
C1868       C  0.55499093  0.99442404  0.14755674    -0.07360
Cl1869     Cl  0.98650888  0.88153171  0.11529601    -0.50360
C1870       C  0.89943618  0.98318165  0.16869859     0.42170
H1871       H  0.56462012  0.91795573  0.03584800     0.06380
N1872       N  0.55275945  0.94362603  0.17892653    -0.47070
C1873       C  0.91106365  0.55379322  0.18902571    -0.09600
C1874       C  0.88651182  0.01692817  0.18599595     0.06600
C1875       C  0.85162513  0.01226117  0.20040673    -0.03360
C1876       C  0.84312948  0.54289799  0.21843983    -0.07810
C1877       C  0.87081166  0.57645773  0.22430873     0.05720
C1878       C  0.90553151  0.58137731  0.20914455    -0.02840
Br1879     Br  0.94994008  0.61931973  0.21656202    -0.02530
H1880       H  0.93692849  0.55903649  0.17698516     0.09630
H1881       H  0.81519626  0.53888164  0.22844748     0.07650
Br1882     Br  0.81454211  0.96495648  0.19583058    -0.02960
C1883       C  0.85475323  0.67550988  0.20337855    -0.09600
C1884       C  0.87405964  0.67589938  0.22699632     0.06600
C1885       C  0.90251138  0.70927965  0.23157003    -0.03360
C1886       C  0.90865912  0.74280255  0.21386173    -0.07810
C1887       C  0.88887285  0.74325167  0.19062851     0.05720
C1888       C  0.86243020  0.70863436  0.18510457    -0.02840
Br1889     Br  0.83478272  0.70663386  0.15345739    -0.02530
H1890       H  0.83278044  0.65034567  0.19947420     0.09630
H1891       H  0.93028754  0.76805735  0.21802689     0.07650
Br1892     Br  0.93742580  0.70892202  0.26046368    -0.02960
C1893       C  0.56570869  0.57073933  0.21982223    -0.09600
C1894       C  0.60576366  0.57476332  0.22776153     0.06600
C1895       C  0.63506087  0.54817139  0.21672235    -0.03360
C1896       C  0.62400185  0.01943867  0.19777328    -0.07810
C1897       C  0.58352254  0.01360549  0.19127638     0.05720
C1898       C  0.55437880  0.53787460  0.20351642    -0.02840
Br1899     Br  0.99945527  0.51982146  0.20305800    -0.02530
H1900       H  0.54260029  0.58911988  0.22892865     0.09630
H1901       H  0.64676816  0.00011338  0.18902120     0.07650
Br1902     Br  0.69040208  0.54878554  0.22723568    -0.02960
C1903       C  0.60696071  0.71436163  0.18929842    -0.09600
C1904       C  0.57642552  0.74305381  0.19576294     0.06600
C1905       C  0.55553537  0.73505862  0.21855234    -0.03360
C1906       C  0.56524217  0.69912738  0.23403731    -0.07810
C1907       C  0.59741213  0.67188471  0.22845695     0.05720
C1908       C  0.61859810  0.68013561  0.20575563    -0.02840
Br1909     Br  0.66668829  0.65029972  0.19751662    -0.02530
H1910       H  0.62332828  0.72003680  0.17189425     0.09630
H1911       H  0.54939322  0.69430277  0.25170136     0.07650
Br1912     Br  0.51445158  0.77219911  0.23055486    -0.02960
C1913       C  0.55985315  0.97530277  0.78673340    -0.09600
C1914       C  0.58004679  0.48156962  0.80956924     0.06600
C1915       C  0.61300824  0.45477217  0.81586139    -0.03760
C1916       C  0.62763255  0.92556721  0.79836442    -0.07810
C1917       C  0.60904901  0.92134050  0.77471532     0.05720
C1918       C  0.57377123  0.94524043  0.76955071    -0.02840
Br1919     Br  0.54652703  0.94182708  0.73792994    -0.02530
H1920       H  0.53368425  0.99456222  0.78194905     0.09630
H1921       H  0.65565973  0.90932626  0.80238982     0.07650
Br1922     Br  0.64235302  0.46083588  0.84673095    -0.02960
C1923       C  0.63218430  0.81932340  0.79605244    -0.09600
C1924       C  0.60941496  0.82668565  0.77391422     0.06600
C1925       C  0.57551459  0.79955048  0.76996464    -0.03360
C1926       C  0.56657243  0.76510041  0.78682730    -0.07810
C1927       C  0.58860235  0.75854902  0.80908294     0.05720
C1928       C  0.62104621  0.78685610  0.81401011    -0.02840
Br1929     Br  0.65249864  0.78037540  0.84415656    -0.02530
H1930       H  0.65985631  0.83729745  0.79886478     0.09630
H1931       H  0.54117473  0.74402916  0.78284676     0.07650
Br1932     Br  0.53921827  0.80778907  0.74227941    -0.02960
C1933       C  0.84794557  0.93094212  0.79228162    -0.09600
C1934       C  0.87222031  0.92705958  0.77085420     0.06600
C1935       C  0.90516516  0.95595257  0.76748597    -0.03360
C1936       C  0.91327764  0.48761562  0.78497820    -0.07810
C1937       C  0.88874894  0.49216568  0.80602962     0.05720
C1938       C  0.85617554  0.96299106  0.80991578    -0.02840
Br1939     Br  0.82103213  0.96734123  0.83822626    -0.02530
H1940       H  0.82180204  0.90999301  0.79484931     0.09630
H1941       H  0.93934407  0.50865998  0.78220787     0.07650
Br1942     Br  0.94123859  0.95322531  0.73974123    -0.02960
C1943       C  0.85095458  0.77084827  0.80741716    -0.09600
C1944       C  0.89210077  0.76498513  0.81162133     0.06600
C1945       C  0.91973790  0.79565531  0.80132826    -0.03360
C1946       C  0.90643887  0.82886888  0.78493207    -0.07810
C1947       C  0.86559846  0.83204617  0.77860592     0.05720
C1948       C  0.83755353  0.80446694  0.79124903    -0.02840
Br1949     Br  0.78076458  0.81113478  0.78665756    -0.02530
H1950       H  0.82930318  0.74885414  0.81635095     0.09630
H1951       H  0.92836735  0.84973135  0.77536515     0.07650
Br1952     Br  0.97618106  0.79203249  0.80790331    -0.02960
C1953       C  0.63003200  0.81085052  0.02676477    -0.09600
C1954       C  0.62648339  0.79175772  0.05092116     0.06600
C1955       C  0.65806347  0.76430602  0.05950629    -0.03360
C1956       C  0.69040656  0.75486697  0.04328914    -0.07810
C1957       C  0.69223872  0.77238258  0.01844829     0.05720
C1958       C  0.66143468  0.80139527  0.01073899    -0.02840
Br1959     Br  0.65717100  0.82801552  0.97774901    -0.02530
H1960       H  0.60704529  0.83255458  0.01950462     0.09630
H1961       H  0.71270446  0.73156861  0.04959936     0.07650
Br1962     Br  0.65931533  0.73848211  0.09271881    -0.02960
C1963       C  0.80618999  0.72288024  0.03453657    -0.09600
C1964       C  0.78369731  0.75653206  0.02294519     0.06600
C1965       C  0.79495624  0.79941018  0.02767087    -0.03360
C1966       C  0.82934665  0.80876933  0.04167260    -0.07810
C1967       C  0.85334004  0.77555734  0.05198816     0.05720
C1968       C  0.84060737  0.73197739  0.04911733    -0.02840
Br1969     Br  0.87166528  0.68363842  0.06137438    -0.02530
H1970       H  0.79883723  0.68938937  0.03057082     0.09630
H1971       H  0.83861831  0.84239623  0.04326993     0.07650
Br1972     Br  0.76812479  0.84601577  0.01167156    -0.02960
C1973       C  0.66389821  0.70022012  0.99016935    -0.09600
C1974       C  0.69261527  0.72896949  0.97956733     0.06600
C1975       C  0.68750494  0.74307813  0.95413220    -0.03360
C1976       C  0.65137984  0.73328581  0.94155569    -0.07810
C1977       C  0.62017621  0.70999237  0.95387009     0.05720
C1978       C  0.62731669  0.69261868  0.97840728    -0.02840
Br1979     Br  0.58781786  0.66211406  0.99880460    -0.02530
H1980       H  0.66783518  0.68797897  0.00935741     0.09630
H1981       H  0.64714923  0.74538978  0.92239904     0.07650
Br1982     Br  0.72470236  0.78100636  0.93651759    -0.02960
C1983       C  0.82437772  0.68538705  0.95562326    -0.09600
C1984       C  0.85080438  0.71863548  0.94686169     0.06600
C1985       C  0.84210026  0.76189639  0.95241768    -0.03360
C1986       C  0.80963754  0.77057712  0.96806630    -0.07810
C1987       C  0.78439634  0.73712999  0.97794630     0.05720
C1988       C  0.79074994  0.69455123  0.97035071    -0.02840
Br1989     Br  0.75491318  0.64829221  0.98037559    -0.02530
H1990       H  0.83070350  0.65190082  0.95172746     0.09630
H1991       H  0.80518779  0.80374537  0.97328878     0.07650
Br1992     Br  0.87612715  0.81001434  0.94224999    -0.02960
C1993       C  0.64523962  0.95280685  0.04718064    -0.09600
C1994       C  0.62108042  0.98777487  0.05263842     0.06600
C1995       C  0.63411960  0.02994224  0.04506464    -0.03360
C1996       C  0.66897197  0.03535542  0.02995433    -0.07810
C1997       C  0.68988976  0.99888219  0.02136181     0.05720
C1998       C  0.67679368  0.95772317  0.03044341    -0.02840
Br1999     Br  0.69180766  0.90565419  0.01622170    -0.02530
H2000       H  0.63593939  0.92013772  0.05304924     0.09630
H2001       H  0.67735020  0.56764931  0.02301950     0.07650
Br2002     Br  0.60297177  0.07979536  0.05252421    -0.02960
C2003       C  0.77885867  0.96645165  0.04009207    -0.09600
C2004       C  0.78209420  0.00165273  0.02259377     0.06600
C2005       C  0.81597908  0.02993188  0.02499691    -0.03360
C2006       C  0.84744288  0.01925192  0.04145225    -0.07810
C2007       C  0.84630616  0.98070298  0.05581907     0.05720
C2008       C  0.81071811  0.95565188  0.05639906    -0.02840
Br2009     Br  0.80557455  0.90477745  0.07794517    -0.02530
H2010       H  0.75400624  0.94407985  0.03939120     0.09630
H2011       H  0.87448700  0.03926753  0.04135092     0.07650
Br2012     Br  0.82450944  0.58157128  0.00483962    -0.02960
C2013       C  0.67851021  0.55192191  0.96882879    -0.09600
C2014       C  0.69193499  0.50981182  0.97441032     0.06600
C2015       C  0.67581249  0.47558759  0.96013331    -0.03360
C2016       C  0.63993278  0.48199476  0.94624776    -0.07810
C2017       C  0.62393513  0.52388895  0.94346343     0.05720
C2018       C  0.64762294  0.55891422  0.95151784    -0.02840
Br2019     Br  0.64371576  0.61485537  0.93548831    -0.02530
H2020       H  0.69251494  0.57947550  0.97764261     0.09630
H2021       H  0.62492497  0.45470914  0.93770958     0.07650
Br2022     Br  0.70575713  0.92407076  0.95482859    -0.02960
C2023       C  0.77771960  0.53669459  0.95652756    -0.09600
C2024       C  0.78199702  0.50248077  0.97458189     0.06600
C2025       C  0.81507347  0.47405516  0.97171710    -0.03360
C2026       C  0.84409129  0.48262309  0.95337594    -0.07810
C2027       C  0.84193938  0.51965876  0.93793608     0.05720
C2028       C  0.80729795  0.54524665  0.93830382    -0.02840
Br2029     Br  0.80075988  0.59376537  0.91520262    -0.02530
H2030       H  0.75395570  0.55984748  0.95798737     0.09630
H2031       H  0.87088387  0.96291345  0.95312218     0.07650
Br2032     Br  0.82753509  0.92602164  0.99363456    -0.02960
C2033       C  0.65136835  0.50280628  0.71346959    -0.09600
C2034       C  0.66490007  0.48669519  0.69076455     0.06600
C2035       C  0.67699698  0.94274364  0.69081869    -0.03360
C2036       C  0.66986803  0.91548486  0.71212255    -0.07810
C2037       C  0.65032148  0.93023267  0.73378356     0.05720
C2038       C  0.64792224  0.97642384  0.73507940    -0.02840
Br2039     Br  0.65460699  0.50859853  0.76531366    -0.02530
H2040       H  0.64696363  0.53746004  0.71510509     0.09630
H2041       H  0.68162363  0.88329621  0.71152135     0.07650
Br2042     Br  0.70706908  0.91787697  0.66420395    -0.02960
C2043       C  0.63529723  0.79311773  0.69106906    -0.09600
C2044       C  0.66358475  0.76138692  0.69795498     0.06600
C2045       C  0.68283393  0.76396642  0.72159927    -0.03360
C2046       C  0.67170457  0.79607178  0.73823006    -0.07810
C2047       C  0.64194316  0.82671672  0.73193907     0.05720
C2048       C  0.62419864  0.82540922  0.70766760    -0.02840
Br2049     Br  0.58588049  0.86709902  0.69528802    -0.02530
H2050       H  0.62152479  0.79266384  0.67256835     0.09630
H2051       H  0.68631017  0.79692690  0.75646180     0.07650
Br2052     Br  0.72645919  0.72709158  0.73195757    -0.02960
C2053       C  0.85688055  0.95012313  0.68358710    -0.09600
C2054       C  0.82951086  0.48364562  0.68749929     0.06600
C2055       C  0.80808868  0.48373969  0.71041974    -0.03360
C2056       C  0.81694205  0.95336739  0.72943323    -0.07810
C2057       C  0.84649880  0.92176596  0.72652569     0.05720
C2058       C  0.86569555  0.91927570  0.70285592    -0.02840
Br2059     Br  0.90688321  0.87810972  0.69609532    -0.02530
H2060       H  0.87291593  0.44911547  0.66596893     0.09630
H2061       H  0.80109133  0.95507435  0.74715397     0.07650
Br2062     Br  0.76544645  0.52330220  0.71734736    -0.02960
C2063       C  0.80713978  0.79160548  0.70016066    -0.09600
C2064       C  0.83627246  0.75952132  0.69678233     0.06600
C2065       C  0.87008852  0.75809567  0.71243786    -0.03360
C2066       C  0.87569258  0.79003974  0.73015298    -0.07810
C2067       C  0.84702356  0.82289335  0.73355091     0.05720
C2068       C  0.81163303  0.82240668  0.71883202    -0.02840
Br2069     Br  0.76683947  0.85937059  0.72469701    -0.02530
H2070       H  0.78002520  0.79172925  0.68877898     0.09630
H2071       H  0.90291024  0.78903990  0.74133012     0.07650
Br2072     Br  0.90955884  0.71343966  0.71014534    -0.02960
C2073       C  0.61819055  0.00747113  0.30005890    -0.09600
C2074       C  0.65456039  0.01534617  0.31225609     0.06600
C2075       C  0.67546843  0.55485611  0.30680448    -0.03360
C2076       C  0.66251305  0.58229651  0.28687756    -0.07810
C2077       C  0.62652209  0.57367768  0.27384915     0.05720
C2078       C  0.60304158  0.53709456  0.28211002    -0.02840
Br2079     Br  0.54824431  0.52712345  0.27240507    -0.02530
H2080       H  0.60070728  0.97860912  0.30516591     0.09630
H2081       H  0.68114263  0.60999236  0.28134801     0.07650
Br2082     Br  0.72196484  0.57340663  0.32535913    -0.02960
C2083       C  0.62231316  0.70784974  0.31111170    -0.09600
C2084       C  0.65156356  0.73934935  0.30419457     0.06600
C2085       C  0.66975489  0.73702091  0.28030501    -0.03360
C2086       C  0.65936122  0.70337364  0.26445324    -0.07810
C2087       C  0.62920254  0.67276110  0.27084515     0.05720
C2088       C  0.60999807  0.67572299  0.29436702    -0.02840
Br2089     Br  0.56456544  0.63992769  0.30364195    -0.02530
H2090       H  0.60790045  0.70924460  0.32931044     0.09630
H2091       H  0.67374922  0.70235791  0.24624083     0.07650
Br2092     Br  0.70856366  0.77839289  0.26731726    -0.02960
C2093       C  0.87816961  0.52695563  0.30562822    -0.09600
C2094       C  0.83959489  0.00858395  0.30794904     0.06600
C2095       C  0.80884243  0.52330672  0.29152288    -0.03360
C2096       C  0.81610558  0.55830209  0.27479201    -0.07810
C2097       C  0.85528256  0.57414862  0.27088507     0.05720
C2098       C  0.88662256  0.55797323  0.28642029    -0.02840
Br2099     Br  0.94152985  0.57591386  0.28155050    -0.02530
H2100       H  0.90221733  0.01545604  0.31783088     0.09630
H2101       H  0.79176702  0.57024779  0.26296606     0.07650
Br2102     Br  0.75842717  0.99311932  0.28819046    -0.02960
C2103       C  0.81072604  0.73298182  0.28390614    -0.09600
C2104       C  0.83508485  0.73519562  0.30535836     0.06600
C2105       C  0.86235845  0.70147908  0.31068305    -0.03360
C2106       C  0.86755452  0.66862296  0.29333755    -0.07810
C2107       C  0.84578491  0.66888202  0.27058164     0.05720
C2108       C  0.81493195  0.69952526  0.26705298    -0.02840
Br2109     Br  0.77732467  0.69656080  0.23965479    -0.02530
H2110       H  0.78798238  0.75714090  0.28039303     0.09630
H2111       H  0.89138095  0.64565515  0.29662013     0.07650
Br2112     Br  0.89583054  0.70131959  0.34015571    -0.02960
C2113       C  0.57030481  0.79019596  0.53213183    -0.09600
C2114       C  0.54491738  0.75448531  0.52699852     0.06600
C2115       C  0.54978516  0.71559867  0.54163808    -0.03360
C2116       C  0.58303038  0.71106731  0.55746241    -0.07810
C2117       C  0.61088456  0.74492782  0.55987186     0.05720
C2118       C  0.60298481  0.78567462  0.54864986    -0.02840
Br2119     Br  0.63920299  0.83374234  0.55289011    -0.02530
H2120       H  0.56678962  0.82064456  0.52163391     0.09630
H2121       H  0.58872661  0.67978262  0.56667149     0.07650
Br2122     Br  0.51540381  0.66573393  0.54074798    -0.02960
C2123       C  0.94968359  0.77149514  0.54238686    -0.09600
C2124       C  0.95651457  0.74220667  0.52304850     0.06600
C2125       C  0.93165920  0.70544524  0.52137055    -0.03360
C2126       C  0.89976701  0.69913211  0.53754387    -0.07810
C2127       C  0.88920238  0.73073846  0.55468993     0.05720
C2128       C  0.91573790  0.76637536  0.55805795    -0.02840
Br2129     Br  0.90577930  0.81092241  0.58151338    -0.02530
H2130       H  0.96835861  0.80041962  0.54364460     0.09630
H2131       H  0.88143706  0.67028184  0.53520697     0.07650
Br2132     Br  0.93801288  0.66389021  0.49598827    -0.02960
C2133       C  0.57362239  0.72440337  0.47573089    -0.09600
C2134       C  0.54846582  0.75977433  0.48001171     0.06600
C2135       C  0.55305349  0.79817631  0.46520549    -0.03360
C2136       C  0.58322176  0.80069615  0.44696929    -0.07810
C2137       C  0.60901594  0.76552988  0.44329769     0.05720
C2138       C  0.60307163  0.72657892  0.45715717    -0.02840
Br2139     Br  0.63805116  0.67790681  0.45399355    -0.02530
H2140       H  0.57171649  0.69575301  0.48788466     0.09630
H2141       H  0.58880840  0.83150604  0.43708212     0.07650
Br2142     Br  0.52359397  0.84990116  0.47157172    -0.02960
C2143       C  0.91592460  0.75046112  0.44142535    -0.09600
C2144       C  0.88347725  0.77366522  0.45098093     0.06600
C2145       C  0.88955587  0.79597164  0.47364900    -0.03360
C2146       C  0.92747234  0.79873924  0.48417641    -0.07810
C2147       C  0.95710546  0.76901629  0.47815165     0.05720
C2148       C  0.95202516  0.74606235  0.45544118    -0.02840
Br2149     Br  0.99057385  0.70635469  0.44298562    -0.02530
H2150       H  0.91232911  0.73346954  0.42400655     0.09630
H2151       H  0.93081099  0.81746041  0.50097240     0.07650
Br2152     Br  0.84731586  0.81339626  0.49587975    -0.02960
C2153       C  0.55111735  0.50302953  0.53547039    -0.09600
C2154       C  0.53813711  0.53088724  0.51553951     0.06600
C2155       C  0.55611392  0.57202183  0.51299599    -0.03360
C2156       C  0.58892102  0.58312827  0.52807085    -0.07810
C2157       C  0.60584975  0.55312753  0.54565916     0.05720
C2158       C  0.58507253  0.51332177  0.55015093    -0.02840
Br2159     Br  0.60297237  0.47004236  0.57427851    -0.02530
H2160       H  0.53710844  0.97135391  0.53813680     0.09630
H2161       H  0.60199482  0.61508968  0.52492714     0.07650
Br2162     Br  0.53824602  0.61311543  0.48792614    -0.02960
C2163       C  0.88227368  0.56125481  0.51467305    -0.09600
C2164       C  0.87806844  0.54621544  0.53974723     0.06600
C2165       C  0.90963516  0.52129269  0.55043512    -0.03360
C2166       C  0.94373874  0.51157090  0.53585289    -0.07810
C2167       C  0.94690577  0.52542132  0.51034241     0.05720
C2168       C  0.91556477  0.55125006  0.50013332    -0.02840
Br2169     Br  0.91495597  0.57396581  0.46604951    -0.02530
H2170       H  0.85880647  0.58036043  0.50575471     0.09630
H2171       H  0.96669092  0.49101395  0.54414576     0.07650
Br2172     Br  0.90777583  0.49945571  0.58457462    -0.02960
C2173       C  0.59463278  0.99428279  0.44162249    -0.09600
C2174       C  0.61673065  0.96065023  0.45318070     0.06600
C2175       C  0.60160023  0.94140170  0.47593526    -0.03360
C2176       C  0.56477120  0.95403526  0.48533451    -0.07810
C2177       C  0.54498465  0.99053602  0.47554995     0.05720
C2178       C  0.55986582  0.51036783  0.45289857    -0.02840
Br2179     Br  0.53626749  0.55941532  0.43563619    -0.02530
H2180       H  0.60522272  0.50936038  0.42418880     0.09630
H2181       H  0.55374112  0.93794900  0.50236250     0.07650
Br2182     Br  0.63101379  0.90484543  0.49917089    -0.02960
C2183       C  0.95149560  0.98804748  0.44972785    -0.09600
C2184       C  0.95766371  0.97440535  0.47485005     0.06600
C2185       C  0.93475788  0.93924586  0.48443576    -0.03360
C2186       C  0.90038220  0.92631403  0.47160896    -0.07810
C2187       C  0.88910314  0.94689691  0.44861506     0.05720
C2188       C  0.91705049  0.97521251  0.43659286    -0.02840
Br2189     Br  0.90880400  0.50068522  0.40357007    -0.02530
H2190       H  0.96946946  0.51388512  0.44153372     0.09630
H2191       H  0.88154725  0.90193889  0.48077155     0.07650
Br2192     Br  0.94748848  0.91039463  0.51594053    -0.02960
loop_ 
_geom_bond_atom_site_label_1 
_geom_bond_atom_site_label_2 
_geom_bond_distance 
_geom_bond_site_symmetry_2 
_ccdc_geom_bond_type 
C1          C523   1.512       .  S
C1         C1088   1.490   1_545  S
C1         C1646   1.365       .  D
C2          C533   1.501       .  S
C2         C1058   1.498       .  S
C2         C1645   1.365   1_455  D
C3          C470   1.499       .  S
C3          C490   1.480       .  S
C3         C1100   1.357   1_455  D
C4          C480   1.489       .  S
C4          C503   1.511       .  S
C4         C1099   1.358       .  D
C5           N23   1.358       .  A
C5           C42   1.443       .  S
C5          C543   1.481       .  S
N6           N23   1.329       .  A
N6           N28   1.314       .  A
N6          Co43   2.093       .  S
C7           N32   1.349       .  A
C7           C45   1.466       .  S
C7           H52   1.081       .  S
H8           C49   1.081       .  S
C9           N33   1.342       .  A
C9           C13   1.469       .  S
C9           H38   1.082       .  S
Co10         N28   2.048       .  S
Co10         N18   2.032       .  S
Co10         N50   2.026       .  S
Co10         N26   2.040       .  S
Co10        Cl54   2.432       .  S
N11          C49   1.361       .  A
N11          N18   1.312       .  A
N11         Co12   2.120       .  S
Co12         N15   2.059       .  S
Co12         N32   2.093       .  S
Co12         N19   2.093       .  S
Co12        Cl54   2.461       .  S
C13          N51   1.344       .  A
C13         C460   1.473       .  S
N14          N21   1.322       .  A
N14          N44   1.323       .  A
N14         Co47   2.086       .  S
N15          N33   1.321       .  A
N15          N51   1.320       .  A
N16          C45   1.335       .  A
N16          N26   1.313       .  A
H17          C42   1.070       .  S
N18          N39   1.307       .  A
N19          N37   1.322       .  A
N19          N24   1.324       .  A
C20          N24   1.350       .  A
C20          C48   1.469       .  S
C20         C440   1.486       .  S
N21          C36   1.342       .  A
N21         Co43   2.094       .  S
C22          N50   1.322       .  A
C22          C25   1.443       .  S
C22          H56   1.070       .  S
C25          N46   1.367       .  A
C25         C530   1.490       .  S
N26          N32   1.315       .  A
N27          C53   1.337       .  A
N27          N29   1.323       .  A
N27         Co43   2.063       .  S
N28          C42   1.325       .  A
N29          N57   1.328       .  A
N29         Co47   2.123       .  S
H30          C53   1.081       .  S
H31          C48   1.081       .  S
N33         Co47   2.107       .  S
N34          N46   1.334       .  A
N34          N50   1.313       .  A
N34         Co43   2.126       .  S
C35          N39   1.331       .  A
C35          C49   1.486       .  S
C35         C500   1.489       .  S
C36          C55   1.464       .  S
C36          H40   1.082       .  S
N37          C48   1.341       .  A
N37         Co47   2.094       .  S
C41          N57   1.357       .  A
C41          C53   1.451       .  S
C41         C430   1.479       .  S
Co43        Cl54   2.463       .  S
N44          C55   1.349       .  A
C45         C493   1.460       .  S
Co47        Cl54   2.425       .  S
C55         C450   1.475       .  S
C58          N76   1.364       .  A
C58          C95   1.453       .  S
C58         C520   1.502       .  S
N59          N76   1.337       .  A
N59          N81   1.318       .  A
N59         Co96   2.131       .  S
C60          N85   1.345       .  A
C60          C98   1.458       .  S
C60         H105   1.081       .  S
H61         C102   1.080       .  S
C62          N86   1.342       .  A
C62          C66   1.464       .  S
C62          H91   1.082       .  S
Co63         N81   2.068       .  S
Co63         N71   2.056       .  S
Co63        N103   2.052       .  S
Co63         N79   2.061       .  S
Co63       Cl107   2.440       .  S
N64         C102   1.350       .  A
N64          N71   1.314       .  A
N64         Co65   2.084       .  S
Co65         N68   2.058       .  S
Co65         N85   2.080       .  S
Co65         N72   2.077       .  S
Co65       Cl107   2.454       .  S
C66         N104   1.344       .  A
C66         C420   1.468       .  S
N67          N74   1.324       .  A
N67          N97   1.321       .  A
N67        Co100   2.090       .  S
N68          N86   1.319       .  A
N68         N104   1.319       .  A
N69          C98   1.343       .  A
N69          N79   1.318       .  A
H70          C95   1.079       .  S
N71          N92   1.312       .  A
N72          N90   1.321       .  A
N72          N77   1.323       .  A
C73          N77   1.347       .  A
C73         C101   1.468       .  S
C73         C400   1.484       .  S
N74          C89   1.345       .  A
N74         Co96   2.092       .  S
C75         N103   1.330       .  A
C75          C78   1.452       .  S
C75         H109   1.079       .  S
C78          N99   1.365       .  A
C78         C513   1.502       .  S
N79          N85   1.317       .  A
N80         C106   1.344       .  A
N80          N82   1.322       .  A
N80         Co96   2.086       .  S
N81          C95   1.333       .  A
N82         N110   1.320       .  A
N82        Co100   2.088       .  S
H83         C106   1.079   1_565  S
H84         C101   1.081       .  S
N86        Co100   2.086       .  S
N87          N99   1.335       .  A
N87         N103   1.317       .  A
N87         Co96   2.132       .  S
C88          N92   1.344       .  A
C88         C102   1.470       .  S
C88         C483   1.482       .  S
C89         C108   1.464       .  S
C89          H93   1.081   1_545  S
N90         C101   1.344       .  A
N90        Co100   2.098       .  S
C94         N110   1.350       .  A
C94         C106   1.468       .  S
C94         C390   1.491   1_545  S
Co96       Cl107   2.469       .  S
N97         C108   1.347       .  A
C98         C473   1.461       .  S
Co100      Cl107   2.425       .  S
C108        C410   1.483   1_545  S
C111        C380   1.514       .  S
C111        C908   1.515   1_556  S
C111        C112   1.384       .  D
C112        C370   1.501       .  S
C112        C901   1.509   1_546  S
C113        C313   1.517   1_556  S
C113        C330   1.499       .  S
C113        C114   1.377   1_556  D
C114        C320   1.498       .  S
C114        C343   1.496   1_554  S
C115        N133   1.349       .  A
C115        C152   1.447       .  S
C115        C383   1.461       .  S
N116        N133   1.328       .  A
N116        N138   1.317       .  A
N116       Co153   2.085       .  S
C117        N142   1.348       .  A
C117        C155   1.470       .  S
C117        H162   1.081       .  S
H118        C159   1.081       .  S
C119        N143   1.346       .  A
C119        C123   1.471       .  S
C119        H148   1.082       .  S
Co120       N138   2.062       .  S
Co120       N128   2.063       .  S
Co120      N1256   2.076       .  S
Co120      N1232   2.066       .  S
Co120      Cl164   2.453       .  S
N121        C159   1.350       .  A
N121        N128   1.317       .  A
N121       Co122   2.111       .  S
Co122       N125   2.062       .  S
Co122      N1238   2.092       .  S
Co122      N1225   2.100       .  S
Co122      Cl164   2.449       .  S
C123        N161   1.343       .  A
C123        C300   1.471       .  S
N124        N131   1.320       .  A
N124        N154   1.325       .  A
N124       Co157   2.098       .  S
N125        N143   1.322       .  A
N125        N161   1.320       .  A
N126        C155   1.342       .  A
N126        N136   1.315       .  A
H127        C152   1.080       .  S
N128        N149   1.321       .  A
N129        N147   1.324       .  A
N129        N134   1.327       .  A
N129      Co1218   2.100   1_455  S
C130        N134   1.352       .  A
C130        C158   1.466       .  S
C130        C283   1.485       .  S
N131        C146   1.338       .  A
N131       Co153   2.077       .  S
C132        N160   1.334       .  A
C132        C135   1.453       .  S
C132        H166   1.080       .  S
C135        N156   1.358       .  A
C135        C373   1.488       .  S
N136        N142   1.317       .  A
N136      Co1216   2.066   1_455  S
N137        C163   1.337       .  A
N137        N139   1.322       .  A
N137      Co1249   2.065   1_455  S
N138        C152   1.336       .  A
N139        N167   1.330       .  A
N139      Co1253   2.124   1_455  S
H140        C163   1.081   1_565  S
H141        C158   1.082       .  S
N142      Co1218   2.092   1_455  S
N143       Co157   2.115       .  S
N144        N156   1.335       .  A
N144        N160   1.318       .  A
N144      Co1249   2.106   1_455  S
C145        N149   1.343       .  A
C145        C159   1.472       .  S
C145        C340   1.484       .  S
C146        C165   1.457       .  S
C146        H150   1.081   1_545  S
N147        C158   1.341       .  A
N147      Co1253   2.100   1_455  S
C151        N167   1.359       .  A
C151        C163   1.452       .  S
C151        C270   1.484   1_545  S
Co153      N1233   2.066       .  S
Co153      N1240   2.107       .  S
Co153      Cl164   2.445       .  S
N154        C165   1.356       .  A
C155        C333   1.483       .  S
Co157      N1235   2.124       .  S
Co157      N1243   2.099       .  S
Co157      Cl164   2.458       .  S
N160      Co1216   2.076   1_455  S
C165        C293   1.476   1_545  S
C168        C280   1.509       .  S
C168        C403   1.502       .  S
C168        C169   1.394       .  D
C169        C273   1.506       .  S
C169        C393   1.547       .  S
C170        C303   1.490       .  S
C170        C423   1.495       .  S
C170        C171   1.370       .  D
C171        C290   1.499       .  S
C171        C413   1.499       .  S
C172        C263   1.500       .  S
C172        C443   1.499       .  S
C172        C173   1.378       .  D
C173        C250   1.499       .  S
C173        C433   1.509       .  S
C174        C240   1.497       .  S
C174        C463   1.498       .  S
C174        C175   1.370       .  D
C175        C233   1.507       .  S
C175        C453   1.492       .  S
C176        N194   1.350       .  A
C176        C213   1.453       .  S
C176        C363   1.471       .  S
N177        N194   1.328       .  A
N177        N199   1.321       .  A
N177       Co214   2.098       .  S
C178        N203   1.353       .  A
C178        C216   1.479       .  S
C178        H223   1.079       .  S
H179        C220   1.081       .  S
C180        N204   1.339       .  A
C180        C184   1.469       .  S
C180        H209   1.082       .  S
Co181       N199   2.079       .  S
Co181       N189   2.084       .  S
Co181      N1317   2.082       .  S
Co181      N1293   2.087       .  S
Co181      Cl225   2.447       .  S
N182        C220   1.348       .  A
N182        N189   1.315       .  A
N182       Co183   2.089       .  S
Co183       N186   2.087       .  S
Co183      N1299   2.113       .  S
Co183      N1286   2.078       .  S
Co183      Cl225   2.460       .  S
C184        N222   1.350       .  A
C184        C243   1.479       .  S
N185        N192   1.317       .  A
N185        N215   1.329       .  A
N185       Co218   2.115       .  S
N186        N204   1.323       .  A
N186        N222   1.324       .  A
N187        C216   1.351       .  A
N187        N197   1.319       .  A
H188        C213   1.081       .  S
N189        N210   1.323       .  A
N190        N208   1.321       .  A
N190        N195   1.324       .  A
N190      Co1279   2.078   1_455  S
C191        N195   1.349       .  A
C191        C219   1.468       .  S
C191        C260   1.486       .  S
N192        C207   1.334       .  A
N192       Co214   2.053       .  S
C193        N221   1.332       .  A
C193        C196   1.460       .  S
C193        H227   1.082       .  S
C196        N217   1.353       .  A
C196        C350   1.482       .  S
N197        N203   1.319       .  A
N197      Co1277   2.087   1_455  S
N198        C224   1.342       .  A
N198        N200   1.322       .  A
N198      Co1310   2.097   1_455  S
N199        C213   1.340       .  A
N200        N228   1.326       .  A
N200      Co1314   2.101   1_455  S
H201        C224   1.081       .  S
H202        C219   1.081       .  S
N203      Co1279   2.113   1_455  S
N204       Co218   2.100       .  S
N205        N217   1.332       .  A
N205        N221   1.317       .  A
N205      Co1310   2.081   1_455  S
C206        N210   1.351       .  A
C206        C220   1.466       .  S
C206        C323   1.488       .  S
C207        C226   1.450       .  S
C207        H211   1.081       .  S
N208        C219   1.342       .  A
N208      Co1314   2.101   1_455  S
C212        N228   1.354       .  A
C212        C224   1.465       .  S
C212        C253   1.481       .  S
Co214      N1294   2.097       .  S
Co214      N1301   2.081       .  S
Co214      Cl225   2.457       .  S
N215        C226   1.360       .  A
C216        C310   1.505       .  S
Co218      N1296   2.101       .  S
Co218      N1304   2.101       .  S
Co218      Cl225   2.443       .  S
N221      Co1277   2.082   1_455  S
C226        C230   1.477       .  S
C229        H236   1.082       .  S
C229        C234   1.400       .  A
C229        C778   1.403       .  A
C230        C231   1.396       .  A
C230        C777   1.403       .  A
C231        C780   1.397       .  A
C231       Br238   1.917       .  S
C232        H237   1.076       .  S
C232        C233   1.416       .  A
C232        C779   1.397       .  A
C233        C234   1.415       .  A
C234       Br235   1.919       .  S
C239        H246   1.083       .  S
C239        C240   1.408       .  A
C239        C244   1.408       .  A
C240        C241   1.414       .  A
C241        C242   1.389       .  A
C241       Br248   1.922       .  S
C242        H247   1.080       .  S
C242        C243   1.397       .  A
C243        C244   1.410       .  A
C244       Br245   1.917       .  S
C249        H256   1.084       .  S
C249        C250   1.401       .  A
C249        C254   1.400       .  A
C250        C251   1.419       .  A
C251        C800   1.406       .  A
C251       Br258   1.921       .  S
C252        H257   1.083       .  S
C252        C253   1.399       .  A
C252        C799   1.406       .  A
C253        C802   1.404       .  A
C254        C801   1.404       .  A
C254      Br1351   1.903   1_455  S
Br255      C1350   1.903       .  S
C259        H266   1.084       .  S
C259        C260   1.403       .  A
C259        C264   1.405       .  A
C260        C261   1.412       .  A
C261        C262   1.398       .  A
C261       Br268   1.915       .  S
C262        H267   1.084       .  S
C262        C263   1.405       .  A
C263        C264   1.415       .  A
C264       Br265   1.912       .  S
C269        H276   1.083       .  S
C269        C274   1.403       .  A
C269        C818   1.403       .  A
C270        C271   1.412       .  A
C270        C817   1.403       .  A
C271        C820   1.406       .  A
C271       Br278   1.919       .  S
C272        H277   1.080       .  S
C272        C273   1.408       .  A
C272        C819   1.406       .  A
C273        C274   1.413       .  A
C274       Br275   1.912       .  S
C279        H286   1.080       .  S
C279        C280   1.411       .  A
C279        C284   1.408       .  A
C280        C281   1.414       .  A
C281        C282   1.397       .  A
C281       Br288   1.913       .  S
C282        H287   1.083       .  S
C282        C283   1.400       .  A
C283        C284   1.408       .  A
C284       Br285   1.917       .  S
C289        H296   1.083       .  S
C289        C290   1.407       .  A
C289        C294   1.405       .  A
C290        C291   1.411       .  A
C291        C840   1.394       .  A
C291       Br298   1.909       .  S
C292        H297   1.084   1_565  S
C292        C293   1.399       .  A
C292        C839   1.394       .  A
C293        C842   1.410       .  A
C294        C841   1.410       .  A
C294       Br295   1.918       .  S
C299        H306   1.083       .  S
C299        C300   1.398       .  A
C299        C304   1.400       .  A
C300        C301   1.409       .  A
C301        C302   1.397       .  A
C301       Br308   1.911       .  S
C302        H307   1.084       .  S
C302        C303   1.401       .  A
C303        C304   1.412       .  A
C304       Br305   1.916       .  S
C309        H316   1.083       .  S
C309        C310   1.401       .  A
C309        C314   1.389       .  A
C310        C311   1.420       .  A
C311        C312   1.419       .  A
C311       Br318   1.914       .  S
C312        H317   1.082       .  S
C312        C313   1.412       .  A
C313        C314   1.417       .  A
C314       Br315   1.918   1_554  S
C319        H326   1.083       .  S
C319        C320   1.409       .  A
C319        C324   1.410       .  A
C320        C321   1.397       .  A
C321        C322   1.394       .  A
C321       Br328   1.877       .  S
C322        H327   1.082       .  S
C322        C323   1.401       .  A
C323        C324   1.414       .  A
C324       Br325   1.916       .  S
C329        H336   1.085   1_556  S
C329        C330   1.402       .  A
C329        C334   1.386       .  A
C330        C331   1.418       .  A
C331        C332   1.407       .  A
C331       Br338   1.917       .  S
C332        H337   1.083       .  S
C332        C333   1.406       .  A
C333        C334   1.415       .  A
C334       Br335   1.924       .  S
C339        H346   1.080       .  S
C339        C340   1.410       .  A
C339        C344   1.404       .  A
C340        C341   1.406       .  A
C341        C342   1.398       .  A
C341       Br348   1.918       .  S
C342        H347   1.078       .  S
C342        C343   1.410       .  A
C343        C344   1.401       .  A
C344       Br345   1.910       .  S
C349        H356   1.085       .  S
C349        C350   1.388       .  A
C349        C354   1.382       .  A
C350        C351   1.410       .  A
C351        C352   1.418       .  A
C351       Br358   1.913       .  S
C352        H905   1.082       .  S
C352        C353   1.415       .  A
C353        C660   1.509   1_554  S
C353        C354   1.406       .  A
C354       Br355   1.866       .  S
H357        C900   1.082       .  S
C359        H366   1.071       .  S
C359        C360   1.409       .  A
C359        C364   1.403       .  A
C360        C659   1.515   1_554  S
C360        C361   1.423       .  A
C361        C362   1.397       .  A
C361       Br916   1.907       .  S
C362        H367   1.084       .  S
C362        C363   1.391       .  A
C363        C364   1.405       .  A
C364       Br365   1.917       .  S
Br368       C909   1.907       .  S
C369        H376   1.081       .  S
C369        C370   1.398       .  A
C369        C374   1.391       .  A
C370        C371   1.416   1_545  A
C371        C372   1.413       .  A
C371       Br926   1.910       .  S
C372        H377   1.083       .  S
C372        C373   1.403   1_565  A
C373        C374   1.404       .  A
C374       Br375   1.902       .  S
Br378       C919   1.910       .  S
C379        H386   1.074       .  S
C379        C380   1.410       .  A
C379        C384   1.400       .  A
C380        C381   1.424   1_545  A
C381        C382   1.392       .  A
C381       Br936   1.901       .  S
C382        H935   1.084       .  S
C382        C383   1.386   1_565  A
C383        C384   1.403       .  A
C384       Br385   1.917       .  S
H387        C930   1.084       .  S
Br388       C929   1.901       .  S
C389        H396   1.084       .  S
C389        C390   1.396   1_545  A
C389        C942   1.393   1_545  A
C390        C939   1.415       .  A
C391        C392   1.408       .  A
C391        C938   1.416       .  A
C391       Br398   1.919       .  S
C392        H397   1.070       .  S
C392        C393   1.414       .  A
C393        C394   1.428       .  A
C394        C937   1.393       .  A
C394       Br943   1.923       .  S
Br395       C942   1.923   1_545  S
C399        H406   1.084       .  S
C399        C400   1.403       .  A
C399        C404   1.402       .  A
C400        C401   1.413       .  A
C401        C402   1.400       .  A
C401       Br408   1.920       .  S
C402        H407   1.083       .  S
C402        C403   1.407       .  A
C403        C404   1.419       .  A
C404       Br405   1.918       .  S
C409        H964   1.084       .  S
C409        C414   1.407       .  A
C409        C958   1.404       .  A
C410        C411   1.414       .  A
C410        C957   1.404       .  A
C411        C960   1.390       .  A
C411       Br418   1.923   1_565  S
C412        H417   1.084       .  S
C412        C413   1.403       .  A
C412        C959   1.390       .  A
C413        C414   1.418       .  A
C414       Br415   1.918       .  S
H416        C957   1.084       .  S
C419        H426   1.084       .  S
C419        C420   1.407       .  A
C419        C424   1.400       .  A
C420        C421   1.397       .  A
C421        C422   1.393       .  A
C421       Br428   1.918       .  S
C422        H427   1.081       .  S
C422        C423   1.413       .  A
C423        C424   1.411       .  A
C424       Br425   1.916       .  S
C429        H436   1.084       .  S
C429        C430   1.392       .  A
C429        C982   1.396       .  A
C430        C979   1.416       .  A
C431        C432   1.404       .  A
C431        C978   1.416       .  A
C431       Br438   1.922       .  S
C432        H437   1.082       .  S
C432        C433   1.407       .  A
C433        C434   1.422       .  A
C434        C977   1.396       .  A
C434       Br435   1.916       .  S
C439        H446   1.084       .  S
C439        C440   1.407       .  A
C439        C444   1.407       .  A
C440        C441   1.413       .  A
C441        C442   1.395       .  A
C441       Br448   1.917       .  S
C442        H447   1.083       .  S
C442        C443   1.403       .  A
C443        C444   1.412       .  A
C444       Br445   1.916       .  S
C449       H1004   1.083       .  S
C449        C454   1.403       .  A
C449        C998   1.401       .  A
C450        C997   1.401       .  A
C450        C999   1.411       .  A
C451        C452   1.395       .  A
C451        C998   1.411       .  A
C451      Br1006   1.918   1_545  S
C452        H457   1.084       .  S
C452        C453   1.400       .  A
C453        C454   1.413       .  A
C454       Br455   1.917       .  S
H456        C997   1.083       .  S
Br458       C999   1.918       .  S
C459        H466   1.078       .  S
C459        C460   1.399       .  A
C459        C464   1.394       .  A
C460        C461   1.407       .  A
C461        C462   1.402       .  A
C461       Br468   1.919       .  S
C462        H467   1.078       .  S
C462        C463   1.407       .  A
C463        C464   1.409       .  A
C464       Br465   1.920       .  S
C469        H476   1.083       .  S
C469        C470   1.410       .  A
C469        C474   1.400       .  A
C470        C471   1.417       .  A
C471        C472   1.392       .  A
C471       Br478   1.904       .  S
C472        H477   1.085       .  S
C472        C473   1.394       .  A
C473        C474   1.399       .  A
C474       Br475   1.915       .  S
C479        H486   1.083       .  S
C479        C480   1.409       .  A
C479        C484   1.410       .  A
C480        C481   1.398       .  A
C481        C482   1.376       .  A
C481       Br488   1.901       .  S
C482        H487   1.081       .  S
C482        C483   1.402       .  A
C483        C484   1.415       .  A
C484       Br485   1.914       .  S
C489        H496   1.078       .  S
C489        C490   1.405       .  A
C489        C494   1.393       .  A
C490        C491   1.406       .  A
C491        C492   1.398       .  A
C491       Br498   1.918       .  S
C492        H497   1.084       .  S
C492        C493   1.407       .  A
C493        C494   1.400       .  A
C494       Br495   1.918       .  S
C499        H506   1.083       .  S
C499        C500   1.406       .  A
C499        C504   1.416       .  A
C500        C501   1.418       .  A
C501        C502   1.380       .  A
C501       Br508   1.930       .  S
C502        H507   1.082       .  S
C502        C503   1.397       .  A
C503        C504   1.426       .  A
C504       Br505   1.915       .  S
C509       H1064   1.082   1_545  S
C509        C510   1.412       .  A
C509        C514   1.409       .  A
C510        C550   1.498       .  S
C510        C511   1.396       .  A
C511        C512   1.397       .  A
C511       Br518   1.907       .  S
C512        H517   1.079       .  S
C512        C513   1.413       .  A
C513        C514   1.413       .  A
C514       Br515   1.918   1_545  S
H516       C1057   1.082       .  S
C519        H526   1.081       .  S
C519        C520   1.405       .  A
C519        C524   1.395       .  A
C520        C521   1.414       .  A
C521        C522   1.416       .  A
C521       Br528   1.917   1_545  S
C522        H527   1.081   1_545  S
C522        C523   1.413       .  A
C523        C524   1.414       .  A
C524       Br525   1.922       .  S
C529       H1084   1.084       .  S
C529        C530   1.401       .  A
C529       C1082   1.404       .  A
C530        C531   1.422       .  A
C531        C532   1.388       .  A
C531       Br538   1.918       .  S
C532        H537   1.082       .  S
C532        C533   1.394       .  A
C533       C1082   1.423       .  A
C534       C1077   1.404   1_545  A
C534       C1081   1.423   1_545  A
C534       Br535   1.916       .  S
H536       C1077   1.084   1_545  S
C539       H1094   1.071       .  S
C539        C540   1.403       .  A
C539        C544   1.399       .  A
C540        C549   1.490       .  S
C540        C541   1.400       .  A
C541        C542   1.389       .  A
C541       Br548   1.919       .  S
C542        H547   1.077       .  S
C542        C543   1.411       .  A
C543        C544   1.408       .  A
C544      Br1093   1.920       .  S
Br545      C1092   1.920   1_545  S
H546       C1087   1.071   1_545  S
C549       C1071   1.512       .  S
C549       C1098   1.365       .  D
C550       C1081   1.501   1_545  S
C550       C1097   1.365   1_455  D
C551       C1018   1.499       .  S
C551       C1038   1.480       .  S
C551       C1648   1.358   1_455  D
C552       C1028   1.489       .  S
C552       C1051   1.511       .  S
C552       C1647   1.358       .  D
C553        N571   1.358       .  A
C553        C590   1.443       .  S
C553       C1091   1.481       .  S
N554        N571   1.329       .  A
N554        N576   1.314       .  A
N554       Co591   2.093       .  S
C555        N580   1.349       .  A
C555        C593   1.466       .  S
C555        H600   1.081       .  S
H556        C597   1.081       .  S
C557        N581   1.342       .  A
C557        C561   1.469       .  S
C557        H586   1.082       .  S
Co558       N576   2.048       .  S
Co558       N566   2.032       .  S
Co558       N598   2.026       .  S
Co558       N574   2.040       .  S
Co558      Cl602   2.432       .  S
N559        C597   1.361       .  A
N559        N566   1.312       .  A
N559       Co560   2.120       .  S
Co560       N563   2.059       .  S
Co560       N580   2.093       .  S
Co560       N567   2.093       .  S
Co560      Cl602   2.461       .  S
C561        N599   1.344       .  A
C561       C1008   1.473       .  S
N562        N569   1.322       .  A
N562        N592   1.323       .  A
N562       Co595   2.086       .  S
N563        N581   1.321       .  A
N563        N599   1.320       .  A
N564        C593   1.335       .  A
N564        N574   1.314       .  A
H565        C590   1.070       .  S
N566        N587   1.307       .  A
N567        N585   1.322       .  A
N567        N572   1.324       .  A
C568        N572   1.350       .  A
C568        C596   1.468       .  S
C568        C988   1.486       .  S
N569        C584   1.342       .  A
N569       Co591   2.094       .  S
C570        N598   1.322       .  A
C570        C573   1.443       .  S
C570        H604   1.070       .  S
C573        N594   1.367       .  A
C573       C1078   1.490       .  S
N574        N580   1.315       .  A
N575        C601   1.337       .  A
N575        N577   1.323       .  A
N575       Co591   2.062       .  S
N576        C590   1.325       .  A
N577        N605   1.328       .  A
N577       Co595   2.123       .  S
H578        C601   1.081   1_545  S
H579        C596   1.081       .  S
N581       Co595   2.107       .  S
N582        N594   1.334       .  A
N582        N598   1.313       .  A
N582       Co591   2.126       .  S
C583        N587   1.331       .  A
C583        C597   1.486       .  S
C583       C1048   1.489       .  S
C584        C603   1.464       .  S
C584        H588   1.082   1_565  S
N585        C596   1.341       .  A
N585       Co595   2.094       .  S
C589        N605   1.357       .  A
C589        C601   1.451       .  S
C589        C978   1.479   1_565  S
Co591      Cl602   2.463       .  S
N592        C603   1.349       .  A
C593       C1041   1.460       .  S
Co595      Cl602   2.425       .  S
C603        C998   1.475   1_565  S
C606        N624   1.364       .  A
C606        C643   1.453       .  S
C606       C1068   1.502       .  S
N607        N624   1.337       .  A
N607        N629   1.318       .  A
N607       Co644   2.131       .  S
C608        N633   1.345       .  A
C608        C646   1.458       .  S
C608        H653   1.081       .  S
H609        C650   1.080       .  S
C610        N634   1.342       .  A
C610        C614   1.464       .  S
C610        H639   1.082       .  S
Co611       N629   2.068       .  S
Co611       N619   2.056       .  S
Co611       N651   2.052       .  S
Co611       N627   2.061       .  S
Co611      Cl655   2.440       .  S
N612        C650   1.350       .  A
N612        N619   1.314       .  A
N612       Co613   2.084       .  S
Co613       N616   2.059       .  S
Co613       N633   2.080       .  S
Co613       N620   2.076       .  S
Co613      Cl655   2.454       .  S
C614        N652   1.344       .  A
C614        C968   1.468       .  S
N615        N622   1.324       .  A
N615        N645   1.321       .  A
N615       Co648   2.090       .  S
N616        N634   1.319       .  A
N616        N652   1.319       .  A
N617        C646   1.343       .  A
N617        N627   1.318       .  A
H618        C643   1.079       .  S
N619        N640   1.312       .  A
N620        N638   1.321       .  A
N620        N625   1.323       .  A
C621        N625   1.347       .  A
C621        C649   1.468       .  S
C621        C948   1.484       .  S
N622        C637   1.345       .  A
N622       Co644   2.092       .  S
C623        N651   1.330       .  A
C623        C626   1.453       .  S
C623        H657   1.079       .  S
C626        N647   1.365       .  A
C626       C1061   1.502       .  S
N627        N633   1.317       .  A
N628        C654   1.344       .  A
N628        N630   1.322       .  A
N628       Co644   2.086       .  S
N629        C643   1.333       .  A
N630        N658   1.320       .  A
N630       Co648   2.088       .  S
H631        C654   1.079       .  S
H632        C649   1.081       .  S
N634       Co648   2.086       .  S
N635        N647   1.335       .  A
N635        N651   1.317       .  A
N635       Co644   2.132       .  S
C636        N640   1.344       .  A
C636        C650   1.470       .  S
C636       C1031   1.482       .  S
C637        C656   1.464       .  S
C637        H641   1.081       .  S
N638        C649   1.344       .  A
N638       Co648   2.099       .  S
C642        N658   1.350       .  A
C642        C654   1.468       .  S
C642        C938   1.491       .  S
Co644      Cl655   2.469       .  S
N645        C656   1.347       .  A
C646       C1021   1.461       .  S
Co648      Cl655   2.426       .  S
C656        C958   1.483       .  S
C659        C928   1.514       .  S
C659        C660   1.384       .  D
C660        C918   1.501       .  S
C661        C861   1.517   1_556  S
C661        C878   1.499       .  S
C661        C662   1.377   1_556  D
C662        C868   1.498       .  S
C662        C891   1.496   1_554  S
C663        N681   1.349       .  A
C663        C700   1.447       .  S
C663        C931   1.461       .  S
N664        N681   1.328       .  A
N664        N686   1.317       .  A
N664       Co701   2.085       .  S
C665        N690   1.348       .  A
C665        C703   1.470       .  S
C665        H710   1.081       .  S
H666        C707   1.081       .  S
C667        N691   1.346       .  A
C667        C671   1.471       .  S
C667        H696   1.082       .  S
Co668       N686   2.062       .  S
Co668       N676   2.063       .  S
Co668      N1804   2.076       .  S
Co668      N1780   2.066       .  S
Co668      Cl712   2.453       .  S
N669        C707   1.350       .  A
N669        N676   1.317       .  A
N669       Co670   2.111       .  S
Co670       N673   2.062       .  S
Co670      N1786   2.092       .  S
Co670      N1773   2.100       .  S
Co670      Cl712   2.449       .  S
C671        N709   1.343       .  A
C671        C848   1.471       .  S
N672        N679   1.320       .  A
N672        N702   1.325       .  A
N672       Co705   2.098       .  S
N673        N691   1.322       .  A
N673        N709   1.320       .  A
N674        C703   1.342       .  A
N674        N684   1.315       .  A
H675        C700   1.080       .  S
N676        N697   1.321       .  A
N677        N695   1.324       .  A
N677        N682   1.327       .  A
N677      Co1766   2.100   1_455  S
C678        N682   1.352       .  A
C678        C706   1.466       .  S
C678        C831   1.485       .  S
N679        C694   1.338       .  A
N679       Co701   2.077       .  S
C680        N708   1.333       .  A
C680        C683   1.453       .  S
C680        H714   1.080       .  S
C683        N704   1.358       .  A
C683        C921   1.488       .  S
N684        N690   1.317       .  A
N684      Co1764   2.066   1_455  S
N685        C711   1.337       .  A
N685        N687   1.322       .  A
N685      Co1797   2.066   1_455  S
N686        C700   1.336       .  A
N687        N715   1.330       .  A
N687      Co1801   2.124   1_455  S
H688        C711   1.081       .  S
H689        C706   1.082       .  S
N690      Co1766   2.092   1_455  S
N691       Co705   2.115       .  S
N692        N704   1.335       .  A
N692        N708   1.318       .  A
N692      Co1797   2.107   1_455  S
C693        N697   1.343       .  A
C693        C707   1.472       .  S
C693        C888   1.484       .  S
C694        C713   1.456       .  S
C694        H698   1.081       .  S
N695        C706   1.341       .  A
N695      Co1801   2.100   1_455  S
C699        N715   1.359       .  A
C699        C711   1.452       .  S
C699        C818   1.485       .  S
Co701      N1781   2.066       .  S
Co701      N1788   2.107       .  S
Co701      Cl712   2.445       .  S
N702        C713   1.356       .  A
C703        C881   1.483       .  S
Co705      N1783   2.123       .  S
Co705      N1791   2.100       .  S
Co705      Cl712   2.458       .  S
N708      Co1764   2.076   1_455  S
C713        C841   1.476       .  S
C716        C828   1.509       .  S
C716        C951   1.502       .  S
C716        C717   1.394       .  D
C717        C821   1.505       .  S
C717        C941   1.547       .  S
C718        C851   1.490       .  S
C718        C971   1.495       .  S
C718        C719   1.370       .  D
C719        C838   1.499       .  S
C719        C961   1.499       .  S
C720        C811   1.500       .  S
C720        C991   1.499       .  S
C720        C721   1.378       .  D
C721        C798   1.499       .  S
C721        C981   1.509       .  S
C722        C788   1.497       .  S
C722       C1011   1.498       .  S
C722        C723   1.370       .  D
C723        C781   1.507       .  S
C723       C1001   1.492       .  S
C724        N742   1.350       .  A
C724        C761   1.453       .  S
C724        C911   1.471       .  S
N725        N742   1.328       .  A
N725        N747   1.321       .  A
N725       Co762   2.098       .  S
C726        N751   1.353       .  A
C726        C764   1.479       .  S
C726        H771   1.079       .  S
H727        C768   1.081       .  S
C728        N752   1.339       .  A
C728        C732   1.469       .  S
C728        H757   1.082       .  S
Co729       N747   2.079       .  S
Co729       N737   2.083       .  S
Co729      N1865   2.082       .  S
Co729      N1841   2.087       .  S
Co729      Cl773   2.447       .  S
N730        C768   1.348       .  A
N730        N737   1.315       .  A
N730       Co731   2.089       .  S
Co731       N734   2.087       .  S
Co731      N1847   2.113       .  S
Co731      N1834   2.078       .  S
Co731      Cl773   2.460       .  S
C732        N770   1.350       .  A
C732        C791   1.479       .  S
N733        N740   1.317       .  A
N733        N763   1.329       .  A
N733       Co766   2.115       .  S
N734        N752   1.323       .  A
N734        N770   1.324       .  A
N735        C764   1.351       .  A
N735        N745   1.319       .  A
H736        C761   1.081       .  S
N737        N758   1.323       .  A
N738        N756   1.321       .  A
N738        N743   1.324       .  A
N738      Co1827   2.078   1_455  S
C739        N743   1.349       .  A
C739        C767   1.468       .  S
C739        C808   1.486       .  S
N740        C755   1.334       .  A
N740       Co762   2.053       .  S
C741        N769   1.332       .  A
C741        C744   1.460       .  S
C741        H775   1.082       .  S
C744        N765   1.353       .  A
C744        C898   1.482       .  S
N745        N751   1.319       .  A
N745      Co1825   2.087   1_455  S
N746        C772   1.342       .  A
N746        N748   1.322       .  A
N746      Co1858   2.097   1_455  S
N747        C761   1.340       .  A
N748        N776   1.326       .  A
N748      Co1862   2.101   1_455  S
H749        C772   1.081   1_545  S
H750        C767   1.081       .  S
N751      Co1827   2.113   1_455  S
N752       Co766   2.099       .  S
N753        N765   1.332       .  A
N753        N769   1.317       .  A
N753      Co1858   2.081   1_455  S
C754        N758   1.351       .  A
C754        C768   1.466       .  S
C754        C871   1.488       .  S
C755        C774   1.450       .  S
C755        H759   1.081   1_565  S
N756        C767   1.342       .  A
N756      Co1862   2.101   1_455  S
C760        N776   1.354       .  A
C760        C772   1.465       .  S
C760        C801   1.481   1_565  S
Co762      N1842   2.097       .  S
Co762      N1849   2.081       .  S
Co762      Cl773   2.457       .  S
N763        C774   1.360       .  A
C764        C858   1.505       .  S
Co766      N1844   2.101       .  S
Co766      N1852   2.101       .  S
Co766      Cl773   2.443       .  S
N769      Co1825   2.082   1_455  S
C774        C778   1.477   1_565  S
C777        H784   1.082       .  S
C777        C782   1.400       .  A
C778        C779   1.396       .  A
C779       Br786   1.917   1_545  S
C780        H785   1.076       .  S
C780        C781   1.416       .  A
C781        C782   1.415       .  A
C782       Br783   1.919       .  S
C787        H794   1.083       .  S
C787        C788   1.408       .  A
C787        C792   1.408       .  A
C788        C789   1.414       .  A
C789        C790   1.389       .  A
C789       Br796   1.922       .  S
C790        H795   1.080       .  S
C790        C791   1.397       .  A
C791        C792   1.410       .  A
C792       Br793   1.917       .  S
C797        H804   1.084       .  S
C797        C798   1.401       .  A
C797        C802   1.400       .  A
C798        C799   1.419       .  A
C799       Br806   1.921       .  S
C800        H805   1.083       .  S
C800        C801   1.399       .  A
C802      Br1899   1.903   1_455  S
Br803      C1898   1.903       .  S
C807        H814   1.084       .  S
C807        C808   1.403       .  A
C807        C812   1.405       .  A
C808        C809   1.412       .  A
C809        C810   1.398       .  A
C809       Br816   1.915       .  S
C810        H815   1.084       .  S
C810        C811   1.405       .  A
C811        C812   1.415       .  A
C812       Br813   1.912       .  S
C817        H824   1.083       .  S
C817        C822   1.403       .  A
C818        C819   1.412       .  A
C819       Br826   1.919       .  S
C820        H825   1.080       .  S
C820        C821   1.408       .  A
C821        C822   1.413       .  A
C822       Br823   1.912       .  S
C827        H834   1.080       .  S
C827        C828   1.411       .  A
C827        C832   1.408       .  A
C828        C829   1.414       .  A
C829        C830   1.397       .  A
C829       Br836   1.913       .  S
C830        H835   1.083       .  S
C830        C831   1.400       .  A
C831        C832   1.408       .  A
C832       Br833   1.917       .  S
C837        H844   1.083       .  S
C837        C838   1.407       .  A
C837        C842   1.405       .  A
C838        C839   1.411       .  A
C839       Br846   1.909       .  S
C840        H845   1.084       .  S
C840        C841   1.399       .  A
C842       Br843   1.918       .  S
C847        H854   1.083       .  S
C847        C848   1.398       .  A
C847        C852   1.400       .  A
C848        C849   1.409       .  A
C849        C850   1.397       .  A
C849       Br856   1.911       .  S
C850        H855   1.084       .  S
C850        C851   1.401       .  A
C851        C852   1.412       .  A
C852       Br853   1.916       .  S
C857        H864   1.083       .  S
C857        C858   1.401       .  A
C857        C862   1.389       .  A
C858        C859   1.420       .  A
C859        C860   1.419       .  A
C859       Br866   1.914       .  S
C860        H865   1.082       .  S
C860        C861   1.412       .  A
C861        C862   1.417       .  A
C862       Br863   1.918   1_554  S
C867        H874   1.083       .  S
C867        C868   1.409       .  A
C867        C872   1.410       .  A
C868        C869   1.397       .  A
C869        C870   1.394       .  A
C869       Br876   1.877       .  S
C870        H875   1.082       .  S
C870        C871   1.401       .  A
C871        C872   1.414       .  A
C872       Br873   1.916       .  S
C877        H884   1.085   1_556  S
C877        C878   1.402       .  A
C877        C882   1.386       .  A
C878        C879   1.418       .  A
C879        C880   1.407       .  A
C879       Br886   1.917       .  S
C880        H885   1.083       .  S
C880        C881   1.406       .  A
C881        C882   1.415       .  A
C882       Br883   1.924       .  S
C887        H894   1.080       .  S
C887        C888   1.410       .  A
C887        C892   1.404       .  A
C888        C889   1.406       .  A
C889        C890   1.398       .  A
C889       Br896   1.918       .  S
C890        H895   1.078       .  S
C890        C891   1.410       .  A
C891        C892   1.401       .  A
C892       Br893   1.910       .  S
C897        H904   1.085       .  S
C897        C898   1.388       .  A
C897        C902   1.382       .  A
C898        C899   1.410   1_565  A
C899        C900   1.418       .  A
C899       Br906   1.913       .  S
C900        C901   1.415   1_545  A
C901        C902   1.406       .  A
C902       Br903   1.866       .  S
C907        H914   1.071       .  S
C907        C908   1.409   1_565  A
C907        C912   1.403       .  A
C908        C909   1.423       .  A
C909        C910   1.397       .  A
C910        H915   1.084       .  S
C910        C911   1.391   1_545  A
C911        C912   1.405       .  A
C912       Br913   1.917       .  S
C917        H924   1.081       .  S
C917        C918   1.398       .  A
C917        C922   1.391       .  A
C918        C919   1.416       .  A
C919        C920   1.413       .  A
C920        H925   1.083       .  S
C920        C921   1.403       .  A
C921        C922   1.404       .  A
C922       Br923   1.902       .  S
C927        H934   1.074       .  S
C927        C928   1.410       .  A
C927        C932   1.400       .  A
C928        C929   1.424       .  A
C929        C930   1.392       .  A
C930        C931   1.386       .  A
C931        C932   1.403       .  A
C932       Br933   1.917       .  S
C937        H944   1.084       .  S
C937        C938   1.397       .  A
C939        C940   1.408       .  A
C939       Br946   1.919       .  S
C940        H945   1.070       .  S
C940        C941   1.414       .  A
C941        C942   1.428       .  A
C947        H954   1.084       .  S
C947        C948   1.403       .  A
C947        C952   1.403       .  A
C948        C949   1.413       .  A
C949        C950   1.400       .  A
C949       Br956   1.920       .  S
C950        H955   1.084       .  S
C950        C951   1.407       .  A
C951        C952   1.418       .  A
C952       Br953   1.918       .  S
C957        C962   1.407       .  A
C958        C959   1.414       .  A
C959       Br966   1.923       .  S
C960        H965   1.084       .  S
C960        C961   1.403       .  A
C961        C962   1.418       .  A
C962       Br963   1.918       .  S
C967        H974   1.084       .  S
C967        C968   1.407       .  A
C967        C972   1.400       .  A
C968        C969   1.397       .  A
C969        C970   1.393       .  A
C969       Br976   1.918       .  S
C970        H975   1.081       .  S
C970        C971   1.413       .  A
C971        C972   1.411       .  A
C972       Br973   1.916       .  S
C977        H984   1.084   1_545  S
C977        C978   1.392       .  A
C979        C980   1.404       .  A
C979       Br986   1.922       .  S
C980        H985   1.082       .  S
C980        C981   1.407       .  A
C981        C982   1.422       .  A
C982       Br983   1.916       .  S
C987        H994   1.084       .  S
C987        C988   1.407       .  A
C987        C992   1.407       .  A
C988        C989   1.413       .  A
C989        C990   1.395       .  A
C989       Br996   1.917       .  S
C990        H995   1.083       .  S
C990        C991   1.403       .  A
C991        C992   1.412       .  A
C992       Br993   1.916       .  S
C997       C1002   1.403       .  A
C999       C1000   1.395       .  A
C1000      H1005   1.084       .  S
C1000      C1001   1.400       .  A
C1001      C1002   1.413       .  A
C1002     Br1003   1.917       .  S
C1007      H1014   1.078       .  S
C1007      C1008   1.399       .  A
C1007      C1012   1.394       .  A
C1008      C1009   1.407       .  A
C1009      C1010   1.402       .  A
C1009     Br1016   1.919       .  S
C1010      H1015   1.078       .  S
C1010      C1011   1.407       .  A
C1011      C1012   1.409       .  A
C1012     Br1013   1.920       .  S
C1017      H1024   1.083       .  S
C1017      C1018   1.410       .  A
C1017      C1022   1.400       .  A
C1018      C1019   1.417       .  A
C1019      C1020   1.392       .  A
C1019     Br1026   1.904       .  S
C1020      H1025   1.085       .  S
C1020      C1021   1.394       .  A
C1021      C1022   1.399       .  A
C1022     Br1023   1.915       .  S
C1027      H1034   1.083       .  S
C1027      C1028   1.409       .  A
C1027      C1032   1.410       .  A
C1028      C1029   1.398       .  A
C1029      C1030   1.376       .  A
C1029     Br1036   1.901       .  S
C1030      H1035   1.081       .  S
C1030      C1031   1.402       .  A
C1031      C1032   1.415       .  A
C1032     Br1033   1.914       .  S
C1037      H1044   1.078       .  S
C1037      C1038   1.405       .  A
C1037      C1042   1.393       .  A
C1038      C1039   1.406       .  A
C1039      C1040   1.398       .  A
C1039     Br1046   1.918       .  S
C1040      H1045   1.084       .  S
C1040      C1041   1.407       .  A
C1041      C1042   1.400       .  A
C1042     Br1043   1.918       .  S
C1047      H1054   1.083       .  S
C1047      C1048   1.406       .  A
C1047      C1052   1.416       .  A
C1048      C1049   1.418       .  A
C1049      C1050   1.380       .  A
C1049     Br1056   1.930       .  S
C1050      H1055   1.082       .  S
C1050      C1051   1.397       .  A
C1051      C1052   1.426       .  A
C1052     Br1053   1.915       .  S
C1057      C1058   1.412       .  A
C1057      C1062   1.409       .  A
C1058      C1059   1.396       .  A
C1059      C1060   1.397       .  A
C1059     Br1066   1.907       .  S
C1060      H1065   1.079       .  S
C1060      C1061   1.413       .  A
C1061      C1062   1.413       .  A
C1062     Br1063   1.918       .  S
C1067      H1074   1.081       .  S
C1067      C1068   1.405       .  A
C1067      C1072   1.395       .  A
C1068      C1069   1.414       .  A
C1069      C1070   1.416       .  A
C1069     Br1076   1.917       .  S
C1070      H1075   1.081       .  S
C1070      C1071   1.413       .  A
C1071      C1072   1.414       .  A
C1072     Br1073   1.922       .  S
C1077      C1078   1.401       .  A
C1078      C1079   1.422       .  A
C1079      C1080   1.388       .  A
C1079     Br1086   1.918       .  S
C1080      H1085   1.082       .  S
C1080      C1081   1.394       .  A
C1082     Br1083   1.916       .  S
C1087      C1088   1.403       .  A
C1087      C1092   1.399       .  A
C1088      C1089   1.400       .  A
C1089      C1090   1.389       .  A
C1089     Br1096   1.919       .  S
C1090      H1095   1.077       .  S
C1090      C1091   1.411       .  A
C1091      C1092   1.408       .  A
C1097      C1619   1.512       .  S
C1097      C2184   1.490   1_545  S
C1098      C2154   1.498       .  S
C1098      C1629   1.501       .  S
C1099      C1566   1.499       .  S
C1099      C1586   1.480       .  S
C1100      C1576   1.489       .  S
C1100      C1599   1.511       .  S
C1101      N1119   1.358       .  A
C1101      C1138   1.443       .  S
C1101      C1639   1.481       .  S
N1102      N1119   1.329       .  A
N1102      N1124   1.314       .  A
N1102     Co1139   2.093       .  S
C1103      N1128   1.349       .  A
C1103      C1141   1.466       .  S
C1103      H1148   1.081       .  S
H1104      C1145   1.081       .  S
C1105      N1129   1.342       .  A
C1105      C1109   1.469       .  S
C1105      H1134   1.082       .  S
Co1106     N1124   2.048       .  S
Co1106     N1114   2.032       .  S
Co1106     N1146   2.026       .  S
Co1106     N1122   2.040       .  S
Co1106    Cl1150   2.432       .  S
N1107      C1145   1.361       .  A
N1107      N1114   1.312       .  A
N1107     Co1108   2.120       .  S
Co1108     N1111   2.059       .  S
Co1108     N1128   2.093       .  S
Co1108     N1115   2.093       .  S
Co1108    Cl1150   2.461       .  S
C1109      N1147   1.344       .  A
C1109      C1556   1.473       .  S
N1110      N1117   1.322       .  A
N1110      N1140   1.323       .  A
N1110     Co1143   2.086       .  S
N1111      N1129   1.321       .  A
N1111      N1147   1.320       .  A
N1112      C1141   1.335       .  A
N1112      N1122   1.314       .  A
H1113      C1138   1.070       .  S
N1114      N1135   1.307       .  A
N1115      N1133   1.322       .  A
N1115      N1120   1.324       .  A
C1116      N1120   1.350       .  A
C1116      C1144   1.469       .  S
C1116      C1536   1.486       .  S
N1117      C1132   1.342       .  A
N1117     Co1139   2.094       .  S
C1118      N1146   1.322       .  A
C1118      C1121   1.443       .  S
C1118      H1152   1.070       .  S
C1121      N1142   1.367       .  A
C1121      C1626   1.490       .  S
N1122      N1128   1.315       .  A
N1123      C1149   1.337       .  A
N1123      N1125   1.323       .  A
N1123     Co1139   2.062       .  S
N1124      C1138   1.325       .  A
N1125      N1153   1.328       .  A
N1125     Co1143   2.123       .  S
H1126      C1149   1.081       .  S
H1127      C1144   1.081       .  S
N1129     Co1143   2.107       .  S
N1130      N1142   1.334       .  A
N1130      N1146   1.313       .  A
N1130     Co1139   2.126       .  S
C1131      N1135   1.331       .  A
C1131      C1145   1.486       .  S
C1131      C1596   1.489       .  S
C1132      C1151   1.464       .  S
C1132      H1136   1.082       .  S
N1133      C1144   1.341       .  A
N1133     Co1143   2.094       .  S
C1137      N1153   1.357       .  A
C1137      C1149   1.451       .  S
C1137      C1526   1.479       .  S
Co1139    Cl1150   2.463       .  S
N1140      C1151   1.349       .  A
C1141      C1589   1.460       .  S
Co1143    Cl1150   2.425       .  S
C1151      C1546   1.475       .  S
C1154      N1172   1.364       .  A
C1154      C1191   1.453       .  S
C1154      C1616   1.502       .  S
N1155      N1172   1.337       .  A
N1155      N1177   1.318       .  A
N1155     Co1192   2.131       .  S
C1156      N1181   1.345       .  A
C1156      C1194   1.458       .  S
C1156      H1201   1.081       .  S
H1157      C1198   1.080       .  S
C1158      N1182   1.342       .  A
C1158      C1162   1.464       .  S
C1158      H1187   1.082       .  S
Co1159     N1177   2.068       .  S
Co1159     N1167   2.056       .  S
Co1159     N1199   2.052       .  S
Co1159     N1175   2.061       .  S
Co1159    Cl1203   2.440       .  S
N1160      C1198   1.350       .  A
N1160      N1167   1.314       .  A
N1160     Co1161   2.084       .  S
Co1161     N1164   2.058       .  S
Co1161     N1181   2.080       .  S
Co1161     N1168   2.077       .  S
Co1161    Cl1203   2.454       .  S
C1162      N1200   1.344       .  A
C1162      C1516   1.468       .  S
N1163      N1170   1.324       .  A
N1163      N1193   1.321       .  A
N1163     Co1196   2.090       .  S
N1164      N1182   1.319       .  A
N1164      N1200   1.319       .  A
N1165      C1194   1.343       .  A
N1165      N1175   1.318       .  A
H1166      C1191   1.079       .  S
N1167      N1188   1.312       .  A
N1168      N1186   1.321       .  A
N1168      N1173   1.323       .  A
C1169      N1173   1.347       .  A
C1169      C1197   1.468       .  S
C1169      C1496   1.484       .  S
N1170      C1185   1.345       .  A
N1170     Co1192   2.092       .  S
C1171      N1199   1.330       .  A
C1171      C1174   1.453       .  S
C1171      H1205   1.079       .  S
C1174      N1195   1.365       .  A
C1174      C1609   1.502       .  S
N1175      N1181   1.317       .  A
N1176      C1202   1.344       .  A
N1176      N1178   1.322       .  A
N1176     Co1192   2.086       .  S
N1177      C1191   1.333       .  A
N1178      N1206   1.320       .  A
N1178     Co1196   2.088       .  S
H1179      C1202   1.079   1_565  S
H1180      C1197   1.081       .  S
N1182     Co1196   2.086       .  S
N1183      N1195   1.335       .  A
N1183      N1199   1.317       .  A
N1183     Co1192   2.132       .  S
C1184      N1188   1.344       .  A
C1184      C1198   1.470       .  S
C1184      C1579   1.482       .  S
C1185      C1204   1.464       .  S
C1185      H1189   1.081   1_545  S
N1186      C1197   1.344       .  A
N1186     Co1196   2.098       .  S
C1190      N1206   1.350       .  A
C1190      C1202   1.468       .  S
C1190      C1486   1.491   1_545  S
Co1192    Cl1203   2.469       .  S
N1193      C1204   1.347       .  A
C1194      C1569   1.461       .  S
Co1196    Cl1203   2.425       .  S
C1204      C1506   1.483   1_545  S
C1207      C2004   1.515   1_556  S
C1207      C1476   1.514       .  S
C1207      C1208   1.384       .  D
C1208      C1997   1.509   1_546  S
C1208      C1466   1.501       .  S
C1209      C1409   1.517   1_556  S
C1209      C1426   1.499       .  S
C1209      C1210   1.377   1_556  D
C1210      C1416   1.498       .  S
C1210      C1439   1.496   1_554  S
C1211      N1229   1.349       .  A
C1211      C1248   1.447       .  S
C1211      C1479   1.461       .  S
N1212      N1229   1.328       .  A
N1212      N1234   1.317       .  A
N1212     Co1249   2.085       .  S
C1213      N1238   1.348       .  A
C1213      C1251   1.470       .  S
C1213      H1258   1.081       .  S
H1214      C1255   1.081       .  S
C1215      N1239   1.346       .  A
C1215      C1219   1.471       .  S
C1215      H1244   1.082       .  S
Co1216     N1234   2.063       .  S
Co1216     N1224   2.063       .  S
Co1216    Cl1260   2.453       .  S
N1217      C1255   1.350       .  A
N1217      N1224   1.317       .  A
N1217     Co1218   2.111       .  S
Co1218     N1221   2.062       .  S
Co1218    Cl1260   2.449       .  S
C1219      N1257   1.343       .  A
C1219      C1396   1.471       .  S
N1220      N1227   1.320       .  A
N1220      N1250   1.325       .  A
N1220     Co1253   2.098       .  S
N1221      N1239   1.322       .  A
N1221      N1257   1.320       .  A
N1222      C1251   1.342       .  A
N1222      N1232   1.315       .  A
H1223      C1248   1.080       .  S
N1224      N1245   1.321       .  A
N1225      N1243   1.324       .  A
N1225      N1230   1.327       .  A
C1226      N1230   1.352       .  A
C1226      C1254   1.466       .  S
C1226      C1379   1.485       .  S
N1227      C1242   1.338       .  A
N1227     Co1249   2.078       .  S
C1228      N1256   1.333       .  A
C1228      C1231   1.453       .  S
C1228      H1262   1.080       .  S
C1231      N1252   1.358       .  A
C1231      C1469   1.488       .  S
N1232      N1238   1.317       .  A
N1233      C1259   1.337       .  A
N1233      N1235   1.322       .  A
N1234      C1248   1.336       .  A
N1235      N1263   1.330       .  A
H1236      C1259   1.081   1_565  S
H1237      C1254   1.082       .  S
N1239     Co1253   2.115       .  S
N1240      N1252   1.335       .  A
N1240      N1256   1.318       .  A
C1241      N1245   1.343       .  A
C1241      C1255   1.472       .  S
C1241      C1436   1.484       .  S
C1242      C1261   1.457       .  S
C1242      H1246   1.081   1_545  S
N1243      C1254   1.341       .  A
C1247      N1263   1.359       .  A
C1247      C1259   1.452       .  S
C1247      C1366   1.485   1_545  S
Co1249    Cl1260   2.445       .  S
N1250      C1261   1.356       .  A
C1251      C1429   1.483       .  S
Co1253    Cl1260   2.458       .  S
C1261      C1389   1.477   1_545  S
C1264      C1376   1.508       .  S
C1264      C1499   1.502       .  S
C1264      C1265   1.394       .  D
C1265      C1369   1.506       .  S
C1265      C1489   1.547       .  S
C1266      C1399   1.490       .  S
C1266      C1519   1.495       .  S
C1266      C1267   1.370       .  D
C1267      C1386   1.499       .  S
C1267      C1509   1.499       .  S
C1268      C1359   1.500       .  S
C1268      C1539   1.499       .  S
C1268      C1269   1.378       .  D
C1269      C1346   1.499       .  S
C1269      C1529   1.509       .  S
C1270      C1336   1.497       .  S
C1270      C1559   1.498       .  S
C1270      C1271   1.370       .  D
C1271      C1329   1.507       .  S
C1271      C1549   1.492       .  S
C1272      N1290   1.350       .  A
C1272      C1309   1.453       .  S
C1272      C1459   1.471       .  S
N1273      N1290   1.328       .  A
N1273      N1295   1.321       .  A
N1273     Co1310   2.098       .  S
C1274      N1299   1.353       .  A
C1274      C1312   1.479       .  S
C1274      H1319   1.079       .  S
H1275      C1316   1.081       .  S
C1276      N1300   1.339       .  A
C1276      C1280   1.469       .  S
C1276      H1305   1.082       .  S
Co1277     N1295   2.079       .  S
Co1277     N1285   2.084       .  S
Co1277    Cl1321   2.447       .  S
N1278      C1316   1.348       .  A
N1278      N1285   1.315       .  A
N1278     Co1279   2.089       .  S
Co1279     N1282   2.087       .  S
Co1279    Cl1321   2.460       .  S
C1280      N1318   1.350       .  A
C1280      C1339   1.479       .  S
N1281      N1288   1.317       .  A
N1281      N1311   1.329       .  A
N1281     Co1314   2.115       .  S
N1282      N1300   1.323       .  A
N1282      N1318   1.324       .  A
N1283      C1312   1.351       .  A
N1283      N1293   1.319       .  A
H1284      C1309   1.081       .  S
N1285      N1306   1.323       .  A
N1286      N1304   1.321       .  A
N1286      N1291   1.324       .  A
C1287      N1291   1.349       .  A
C1287      C1315   1.468       .  S
C1287      C1356   1.486       .  S
N1288      C1303   1.334       .  A
N1288     Co1310   2.053       .  S
C1289      N1317   1.332       .  A
C1289      C1292   1.460       .  S
C1289      H1323   1.082       .  S
C1292      N1313   1.353       .  A
C1292      C1446   1.482       .  S
N1293      N1299   1.319       .  A
N1294      C1320   1.342       .  A
N1294      N1296   1.322       .  A
N1295      C1309   1.340       .  A
N1296      N1324   1.326       .  A
H1297      C1320   1.081       .  S
H1298      C1315   1.081       .  S
N1300     Co1314   2.100       .  S
N1301      N1313   1.332       .  A
N1301      N1317   1.317       .  A
C1302      N1306   1.351       .  A
C1302      C1316   1.466       .  S
C1302      C1419   1.488       .  S
C1303      C1322   1.450       .  S
C1303      H1307   1.081       .  S
N1304      C1315   1.342       .  A
C1308      N1324   1.354       .  A
C1308      C1320   1.465       .  S
C1308      C1349   1.481       .  S
Co1310    Cl1321   2.457       .  S
N1311      C1322   1.360       .  A
C1312      C1406   1.505       .  S
Co1314    Cl1321   2.443       .  S
C1322      C1326   1.477       .  S
C1325      H1332   1.082       .  S
C1325      C1874   1.403       .  A
C1325      C1330   1.400       .  A
C1326      C1873   1.403       .  A
C1326      C1327   1.396       .  A
C1327      C1876   1.397       .  A
C1327     Br1334   1.917       .  S
C1328      H1333   1.076       .  S
C1328      C1875   1.397       .  A
C1328      C1329   1.416       .  A
C1329      C1330   1.415       .  A
C1330     Br1331   1.919       .  S
C1335      H1342   1.083       .  S
C1335      C1336   1.408       .  A
C1335      C1340   1.408       .  A
C1336      C1337   1.414       .  A
C1337      C1338   1.389       .  A
C1337     Br1344   1.922       .  S
C1338      H1343   1.080       .  S
C1338      C1339   1.397       .  A
C1339      C1340   1.410       .  A
C1340     Br1341   1.917       .  S
C1345      H1352   1.084       .  S
C1345      C1346   1.401       .  A
C1345      C1350   1.400       .  A
C1346      C1347   1.419       .  A
C1347      C1896   1.406       .  A
C1347     Br1354   1.921       .  S
C1348      H1353   1.083       .  S
C1348      C1895   1.406       .  A
C1348      C1349   1.399       .  A
C1349      C1898   1.404       .  A
C1350      C1897   1.404       .  A
C1355      H1362   1.084       .  S
C1355      C1356   1.403       .  A
C1355      C1360   1.405       .  A
C1356      C1357   1.412       .  A
C1357      C1358   1.398       .  A
C1357     Br1364   1.915       .  S
C1358      H1363   1.084       .  S
C1358      C1359   1.405       .  A
C1359      C1360   1.415       .  A
C1360     Br1361   1.912       .  S
C1365      H1372   1.083       .  S
C1365      C1914   1.403       .  A
C1365      C1370   1.403       .  A
C1366      C1913   1.403       .  A
C1366      C1367   1.412       .  A
C1367      C1916   1.406       .  A
C1367     Br1374   1.919       .  S
C1368      H1373   1.080       .  S
C1368      C1915   1.406       .  A
C1368      C1369   1.408       .  A
C1369      C1370   1.413       .  A
C1370     Br1371   1.912       .  S
C1375      H1382   1.080       .  S
C1375      C1376   1.411       .  A
C1375      C1380   1.408       .  A
C1376      C1377   1.414       .  A
C1377      C1378   1.397       .  A
C1377     Br1384   1.913       .  S
C1378      H1383   1.083       .  S
C1378      C1379   1.400       .  A
C1379      C1380   1.408       .  A
C1380     Br1381   1.917       .  S
C1385      H1392   1.083       .  S
C1385      C1386   1.407       .  A
C1385      C1390   1.405       .  A
C1386      C1387   1.411       .  A
C1387      C1936   1.394       .  A
C1387     Br1394   1.909       .  S
C1388      H1393   1.084   1_565  S
C1388      C1935   1.394       .  A
C1388      C1389   1.399       .  A
C1389      C1938   1.410       .  A
C1390      C1937   1.410       .  A
C1390     Br1391   1.918       .  S
C1395      H1402   1.083       .  S
C1395      C1396   1.398       .  A
C1395      C1400   1.400       .  A
C1396      C1397   1.409       .  A
C1397      C1398   1.397       .  A
C1397     Br1404   1.911       .  S
C1398      H1403   1.084       .  S
C1398      C1399   1.401       .  A
C1399      C1400   1.412       .  A
C1400     Br1401   1.916       .  S
C1405      H1412   1.083       .  S
C1405      C1406   1.401       .  A
C1405      C1410   1.389       .  A
C1406      C1407   1.420       .  A
C1407      C1408   1.419       .  A
C1407     Br1414   1.914       .  S
C1408      H1413   1.082       .  S
C1408      C1409   1.412       .  A
C1409      C1410   1.417       .  A
C1410     Br1411   1.918   1_554  S
C1415      H1422   1.083       .  S
C1415      C1416   1.409       .  A
C1415      C1420   1.410       .  A
C1416      C1417   1.397       .  A
C1417      C1418   1.394       .  A
C1417     Br1424   1.877       .  S
C1418      H1423   1.082       .  S
C1418      C1419   1.401       .  A
C1419      C1420   1.414       .  A
C1420     Br1421   1.916       .  S
C1425      H1432   1.085   1_556  S
C1425      C1426   1.402       .  A
C1425      C1430   1.386       .  A
C1426      C1427   1.418       .  A
C1427      C1428   1.407       .  A
C1427     Br1434   1.917       .  S
C1428      H1433   1.083       .  S
C1428      C1429   1.406       .  A
C1429      C1430   1.415       .  A
C1430     Br1431   1.924       .  S
C1435      H1442   1.080       .  S
C1435      C1436   1.410       .  A
C1435      C1440   1.404       .  A
C1436      C1437   1.406       .  A
C1437      C1438   1.398       .  A
C1437     Br1444   1.918       .  S
C1438      H1443   1.078       .  S
C1438      C1439   1.410       .  A
C1439      C1440   1.401       .  A
C1440     Br1441   1.910       .  S
C1445      H1452   1.085       .  S
C1445      C1446   1.388       .  A
C1445      C1450   1.382       .  A
C1446      C1447   1.410       .  A
C1447      C1448   1.418       .  A
C1447     Br1454   1.913       .  S
C1448      H2001   1.082       .  S
C1448      C1449   1.415       .  A
C1449      C1756   1.509   1_554  S
C1449      C1450   1.406       .  A
C1450     Br1451   1.866       .  S
H1453      C1996   1.082       .  S
C1455      H1462   1.071       .  S
C1455      C1456   1.409       .  A
C1455      C1460   1.403       .  A
C1456      C1755   1.515   1_554  S
C1456      C1457   1.423       .  A
C1457      C1458   1.397       .  A
C1457     Br2012   1.907       .  S
C1458      H1463   1.084       .  S
C1458      C1459   1.391       .  A
C1459      C1460   1.405       .  A
C1460     Br1461   1.917       .  S
Br1464     C2005   1.907       .  S
C1465      H1472   1.081       .  S
C1465      C1466   1.398       .  A
C1465      C1470   1.391       .  A
C1466      C1467   1.416   1_545  A
C1467      C1468   1.413       .  A
C1467     Br2022   1.910       .  S
C1468      H1473   1.083       .  S
C1468      C1469   1.403   1_565  A
C1469      C1470   1.404       .  A
C1470     Br1471   1.902       .  S
Br1474     C2015   1.910       .  S
C1475      H1482   1.074       .  S
C1475      C1476   1.410       .  A
C1475      C1480   1.400       .  A
C1476      C1477   1.424   1_545  A
C1477      C1478   1.392       .  A
C1477     Br2032   1.901       .  S
C1478      H2031   1.084       .  S
C1478      C1479   1.386   1_565  A
C1479      C1480   1.403       .  A
C1480     Br1481   1.917       .  S
H1483      C2026   1.084       .  S
Br1484     C2025   1.901       .  S
C1485      H1492   1.084       .  S
C1485      C1486   1.397   1_545  A
C1485      C2038   1.393   1_545  A
C1486      C2035   1.415       .  A
C1487      C2034   1.415       .  A
C1487      C1488   1.407       .  A
C1487     Br1494   1.919       .  S
C1488      H1493   1.070       .  S
C1488      C1489   1.414       .  A
C1489      C1490   1.428       .  A
C1490      C2033   1.393       .  A
C1490     Br2039   1.923       .  S
Br1491     C2038   1.923   1_545  S
C1495      H1502   1.084       .  S
C1495      C1496   1.403       .  A
C1495      C1500   1.402       .  A
C1496      C1497   1.413       .  A
C1497      C1498   1.400       .  A
C1497     Br1504   1.920       .  S
C1498      H1503   1.083       .  S
C1498      C1499   1.407       .  A
C1499      C1500   1.418       .  A
C1500     Br1501   1.918       .  S
C1505      H2060   1.084       .  S
C1505      C2054   1.404       .  A
C1505      C1510   1.407       .  A
C1506      C2053   1.404       .  A
C1506      C1507   1.414       .  A
C1507      C2056   1.390       .  A
C1507     Br1514   1.923   1_565  S
C1508      H1513   1.084       .  S
C1508      C2055   1.390       .  A
C1508      C1509   1.403       .  A
C1509      C1510   1.418       .  A
C1510     Br1511   1.918       .  S
H1512      C2053   1.084       .  S
C1515      H1522   1.084       .  S
C1515      C1516   1.407       .  A
C1515      C1520   1.400       .  A
C1516      C1517   1.397       .  A
C1517      C1518   1.393       .  A
C1517     Br1524   1.918       .  S
C1518      H1523   1.081       .  S
C1518      C1519   1.413       .  A
C1519      C1520   1.411       .  A
C1520     Br1521   1.916       .  S
C1525      H1532   1.084       .  S
C1525      C1526   1.392       .  A
C1525      C2078   1.396       .  A
C1526      C2075   1.416       .  A
C1527      C2074   1.416       .  A
C1527      C1528   1.404       .  A
C1527     Br1534   1.922       .  S
C1528      H1533   1.082       .  S
C1528      C1529   1.407       .  A
C1529      C1530   1.422       .  A
C1530      C2073   1.396       .  A
C1530     Br1531   1.916       .  S
C1535      H1542   1.084       .  S
C1535      C1536   1.407       .  A
C1535      C1540   1.407       .  A
C1536      C1537   1.413       .  A
C1537      C1538   1.395       .  A
C1537     Br1544   1.917       .  S
C1538      H1543   1.083       .  S
C1538      C1539   1.403       .  A
C1539      C1540   1.412       .  A
C1540     Br1541   1.916       .  S
C1545      H2100   1.083       .  S
C1545      C2094   1.401       .  A
C1545      C1550   1.403       .  A
C1546      C2093   1.401       .  A
C1546      C2095   1.411       .  A
C1547      C2094   1.411       .  A
C1547      C1548   1.395       .  A
C1547     Br2102   1.918   1_545  S
C1548      H1553   1.084       .  S
C1548      C1549   1.400       .  A
C1549      C1550   1.413       .  A
C1550     Br1551   1.917       .  S
H1552      C2093   1.083       .  S
Br1554     C2095   1.918       .  S
C1555      H1562   1.078       .  S
C1555      C1556   1.399       .  A
C1555      C1560   1.394       .  A
C1556      C1557   1.407       .  A
C1557      C1558   1.402       .  A
C1557     Br1564   1.919       .  S
C1558      H1563   1.078       .  S
C1558      C1559   1.407       .  A
C1559      C1560   1.409       .  A
C1560     Br1561   1.920       .  S
C1565      H1572   1.083       .  S
C1565      C1566   1.410       .  A
C1565      C1570   1.400       .  A
C1566      C1567   1.417       .  A
C1567      C1568   1.392       .  A
C1567     Br1574   1.904       .  S
C1568      H1573   1.085       .  S
C1568      C1569   1.394       .  A
C1569      C1570   1.399       .  A
C1570     Br1571   1.915       .  S
C1575      H1582   1.083       .  S
C1575      C1576   1.409       .  A
C1575      C1580   1.410       .  A
C1576      C1577   1.398       .  A
C1577      C1578   1.376       .  A
C1577     Br1584   1.901       .  S
C1578      H1583   1.081       .  S
C1578      C1579   1.402       .  A
C1579      C1580   1.415       .  A
C1580     Br1581   1.914       .  S
C1585      H1592   1.078       .  S
C1585      C1586   1.405       .  A
C1585      C1590   1.393       .  A
C1586      C1587   1.406       .  A
C1587      C1588   1.398       .  A
C1587     Br1594   1.918       .  S
C1588      H1593   1.084       .  S
C1588      C1589   1.407       .  A
C1589      C1590   1.400       .  A
C1590     Br1591   1.918       .  S
C1595      H1602   1.083       .  S
C1595      C1596   1.406       .  A
C1595      C1600   1.416       .  A
C1596      C1597   1.418       .  A
C1597      C1598   1.380       .  A
C1597     Br1604   1.930       .  S
C1598      H1603   1.082       .  S
C1598      C1599   1.397       .  A
C1599      C1600   1.426       .  A
C1600     Br1601   1.915       .  S
C1605      H2160   1.082   1_545  S
C1605      C1606   1.412       .  A
C1605      C1610   1.409       .  A
C1606      C1646   1.498       .  S
C1606      C1607   1.396       .  A
C1607      C1608   1.397       .  A
C1607     Br1614   1.907       .  S
C1608      H1613   1.079       .  S
C1608      C1609   1.413       .  A
C1609      C1610   1.413       .  A
C1610     Br1611   1.918   1_545  S
H1612      C2153   1.082       .  S
C1615      H1622   1.081       .  S
C1615      C1616   1.405       .  A
C1615      C1620   1.395       .  A
C1616      C1617   1.414       .  A
C1617      C1618   1.416       .  A
C1617     Br1624   1.917   1_545  S
C1618      H1623   1.081   1_545  S
C1618      C1619   1.413       .  A
C1619      C1620   1.414       .  A
C1620     Br1621   1.922       .  S
C1625      H2180   1.084       .  S
C1625      C1626   1.401       .  A
C1625      C2178   1.404       .  A
C1626      C1627   1.422       .  A
C1627      C1628   1.388       .  A
C1627     Br1634   1.918       .  S
C1628      H1633   1.082       .  S
C1628      C1629   1.394       .  A
C1629      C2178   1.423       .  A
C1630      C2173   1.404   1_545  A
C1630      C2177   1.423   1_545  A
C1630     Br1631   1.916       .  S
H1632      C2173   1.084   1_545  S
C1635      H2190   1.071       .  S
C1635      C1636   1.403       .  A
C1635      C1640   1.399       .  A
C1636      C1645   1.490       .  S
C1636      C1637   1.400       .  A
C1637      C1638   1.389       .  A
C1637     Br1644   1.919       .  S
C1638      H1643   1.077       .  S
C1638      C1639   1.411       .  A
C1639      C1640   1.408       .  A
C1640     Br2189   1.920       .  S
Br1641     C2188   1.920   1_545  S
H1642      C2183   1.071   1_545  S
C1645      C2167   1.512       .  S
C1646      C2177   1.501   1_545  S
C1647      C2114   1.499       .  S
C1647      C2134   1.480       .  S
C1648      C2124   1.489       .  S
C1648      C2147   1.511       .  S
C1649      N1667   1.358       .  A
C1649      C1686   1.443       .  S
C1649      C2187   1.481       .  S
N1650      N1667   1.329       .  A
N1650      N1672   1.314       .  A
N1650     Co1687   2.093       .  S
C1651      N1676   1.349       .  A
C1651      C1689   1.466       .  S
C1651      H1696   1.081       .  S
H1652      C1693   1.081       .  S
C1653      N1677   1.342       .  A
C1653      C1657   1.469       .  S
C1653      H1682   1.082       .  S
Co1654     N1672   2.047       .  S
Co1654     N1662   2.032       .  S
Co1654     N1694   2.026       .  S
Co1654     N1670   2.040       .  S
Co1654    Cl1698   2.432       .  S
N1655      C1693   1.361       .  A
N1655      N1662   1.312       .  A
N1655     Co1656   2.120       .  S
Co1656     N1659   2.059       .  S
Co1656     N1676   2.093       .  S
Co1656     N1663   2.093       .  S
Co1656    Cl1698   2.461       .  S
C1657      N1695   1.344       .  A
C1657      C2104   1.473       .  S
N1658      N1665   1.322       .  A
N1658      N1688   1.323       .  A
N1658     Co1691   2.086       .  S
N1659      N1677   1.321       .  A
N1659      N1695   1.320       .  A
N1660      C1689   1.335       .  A
N1660      N1670   1.313       .  A
H1661      C1686   1.070       .  S
N1662      N1683   1.307       .  A
N1663      N1681   1.322       .  A
N1663      N1668   1.324       .  A
C1664      N1668   1.350       .  A
C1664      C1692   1.468       .  S
C1664      C2084   1.486       .  S
N1665      C1680   1.342       .  A
N1665     Co1687   2.094       .  S
C1666      N1694   1.322       .  A
C1666      C1669   1.443       .  S
C1666      H1700   1.070       .  S
C1669      N1690   1.367       .  A
C1669      C2174   1.490       .  S
N1670      N1676   1.315       .  A
N1671      C1697   1.337       .  A
N1671      N1673   1.323       .  A
N1671     Co1687   2.062       .  S
N1672      C1686   1.325       .  A
N1673      N1701   1.328       .  A
N1673     Co1691   2.123       .  S
H1674      C1697   1.081   1_545  S
H1675      C1692   1.081       .  S
N1677     Co1691   2.107       .  S
N1678      N1690   1.334       .  A
N1678      N1694   1.313       .  A
N1678     Co1687   2.126       .  S
C1679      N1683   1.331       .  A
C1679      C1693   1.486       .  S
C1679      C2144   1.489       .  S
C1680      C1699   1.464       .  S
C1680      H1684   1.082   1_565  S
N1681      C1692   1.341       .  A
N1681     Co1691   2.094       .  S
C1685      N1701   1.357       .  A
C1685      C1697   1.451       .  S
C1685      C2074   1.479   1_565  S
Co1687    Cl1698   2.463       .  S
N1688      C1699   1.349       .  A
C1689      C2137   1.460       .  S
Co1691    Cl1698   2.425       .  S
C1699      C2094   1.475   1_565  S
C1702      N1720   1.364       .  A
C1702      C1739   1.453       .  S
C1702      C2164   1.502       .  S
N1703      N1720   1.337       .  A
N1703      N1725   1.318       .  A
N1703     Co1740   2.131       .  S
C1704      N1729   1.345       .  A
C1704      C1742   1.458       .  S
C1704      H1749   1.081       .  S
H1705      C1746   1.080       .  S
C1706      N1730   1.342       .  A
C1706      C1710   1.464       .  S
C1706      H1735   1.082       .  S
Co1707     N1725   2.068       .  S
Co1707     N1715   2.056       .  S
Co1707     N1747   2.052       .  S
Co1707     N1723   2.061       .  S
Co1707    Cl1751   2.440       .  S
N1708      C1746   1.350       .  A
N1708      N1715   1.314       .  A
N1708     Co1709   2.084       .  S
Co1709     N1712   2.059       .  S
Co1709     N1729   2.080       .  S
Co1709     N1716   2.076       .  S
Co1709    Cl1751   2.454       .  S
C1710      N1748   1.344       .  A
C1710      C2064   1.468       .  S
N1711      N1718   1.324       .  A
N1711      N1741   1.321       .  A
N1711     Co1744   2.090       .  S
N1712      N1730   1.319       .  A
N1712      N1748   1.319       .  A
N1713      C1742   1.343       .  A
N1713      N1723   1.318       .  A
H1714      C1739   1.079       .  S
N1715      N1736   1.312       .  A
N1716      N1734   1.321       .  A
N1716      N1721   1.323       .  A
C1717      N1721   1.347       .  A
C1717      C1745   1.468       .  S
C1717      C2044   1.484       .  S
N1718      C1733   1.345       .  A
N1718     Co1740   2.093       .  S
C1719      N1747   1.330       .  A
C1719      C1722   1.453       .  S
C1719      H1753   1.079       .  S
C1722      N1743   1.365       .  A
C1722      C2157   1.502       .  S
N1723      N1729   1.317       .  A
N1724      C1750   1.344       .  A
N1724      N1726   1.322       .  A
N1724     Co1740   2.086       .  S
N1725      C1739   1.333       .  A
N1726      N1754   1.320       .  A
N1726     Co1744   2.088       .  S
H1727      C1750   1.079       .  S
H1728      C1745   1.081       .  S
N1730     Co1744   2.086       .  S
N1731      N1743   1.335       .  A
N1731      N1747   1.317       .  A
N1731     Co1740   2.132       .  S
C1732      N1736   1.344       .  A
C1732      C1746   1.470       .  S
C1732      C2127   1.482       .  S
C1733      C1752   1.464       .  S
C1733      H1737   1.081       .  S
N1734      C1745   1.344       .  A
N1734     Co1744   2.098       .  S
C1738      N1754   1.350       .  A
C1738      C1750   1.468       .  S
C1738      C2034   1.491       .  S
Co1740    Cl1751   2.469       .  S
N1741      C1752   1.347       .  A
C1742      C2117   1.461       .  S
Co1744    Cl1751   2.426       .  S
C1752      C2054   1.483       .  S
C1755      C2024   1.514       .  S
C1755      C1756   1.384       .  D
C1756      C2014   1.501       .  S
C1757      C1957   1.517   1_556  S
C1757      C1974   1.499       .  S
C1757      C1758   1.377   1_556  D
C1758      C1964   1.498       .  S
C1758      C1987   1.496   1_554  S
C1759      N1777   1.349       .  A
C1759      C1796   1.447       .  S
C1759      C2027   1.461       .  S
N1760      N1777   1.328       .  A
N1760      N1782   1.317       .  A
N1760     Co1797   2.085       .  S
C1761      N1786   1.348       .  A
C1761      C1799   1.470       .  S
C1761      H1806   1.081       .  S
H1762      C1803   1.081       .  S
C1763      N1787   1.346       .  A
C1763      C1767   1.470       .  S
C1763      H1792   1.082       .  S
Co1764     N1782   2.062       .  S
Co1764     N1772   2.063       .  S
Co1764    Cl1808   2.453       .  S
N1765      C1803   1.350       .  A
N1765      N1772   1.317       .  A
N1765     Co1766   2.111       .  S
Co1766     N1769   2.062       .  S
Co1766    Cl1808   2.449       .  S
C1767      N1805   1.343       .  A
C1767      C1944   1.471       .  S
N1768      N1775   1.320       .  A
N1768      N1798   1.325       .  A
N1768     Co1801   2.098       .  S
N1769      N1787   1.322       .  A
N1769      N1805   1.320       .  A
N1770      C1799   1.342       .  A
N1770      N1780   1.315       .  A
H1771      C1796   1.080       .  S
N1772      N1793   1.321       .  A
N1773      N1791   1.324       .  A
N1773      N1778   1.327       .  A
C1774      N1778   1.352       .  A
C1774      C1802   1.466       .  S
C1774      C1927   1.485       .  S
N1775      C1790   1.338       .  A
N1775     Co1797   2.077       .  S
C1776      N1804   1.333       .  A
C1776      C1779   1.453       .  S
C1776      H1810   1.080       .  S
C1779      N1800   1.358       .  A
C1779      C2017   1.488       .  S
N1780      N1786   1.317       .  A
N1781      C1807   1.337       .  A
N1781      N1783   1.322       .  A
N1782      C1796   1.336       .  A
N1783      N1811   1.330       .  A
H1784      C1807   1.081       .  S
H1785      C1802   1.082       .  S
N1787     Co1801   2.115       .  S
N1788      N1800   1.335       .  A
N1788      N1804   1.318       .  A
C1789      N1793   1.343       .  A
C1789      C1803   1.472       .  S
C1789      C1984   1.484       .  S
C1790      C1809   1.456       .  S
C1790      H1794   1.081       .  S
N1791      C1802   1.341       .  A
C1795      N1811   1.359       .  A
C1795      C1807   1.452       .  S
C1795      C1914   1.485       .  S
Co1797    Cl1808   2.445       .  S
N1798      C1809   1.356       .  A
C1799      C1977   1.483       .  S
Co1801    Cl1808   2.458       .  S
C1809      C1937   1.476       .  S
C1812      C1924   1.509       .  S
C1812      C2047   1.502       .  S
C1812      C1813   1.394       .  D
C1813      C1917   1.505       .  S
C1813      C2037   1.547       .  S
C1814      C1947   1.490       .  S
C1814      C2067   1.495       .  S
C1814      C1815   1.371       .  D
C1815      C1934   1.499       .  S
C1815      C2057   1.499       .  S
C1816      C1907   1.500       .  S
C1816      C2087   1.499       .  S
C1816      C1817   1.378       .  D
C1817      C1894   1.499       .  S
C1817      C2077   1.509       .  S
C1818      C1884   1.497       .  S
C1818      C2107   1.498       .  S
C1818      C1819   1.370       .  D
C1819      C1877   1.507       .  S
C1819      C2097   1.492       .  S
C1820      N1838   1.350       .  A
C1820      C1857   1.453       .  S
C1820      C2007   1.471       .  S
N1821      N1838   1.328       .  A
N1821      N1843   1.321       .  A
N1821     Co1858   2.098       .  S
C1822      N1847   1.353       .  A
C1822      C1860   1.479       .  S
C1822      H1867   1.079       .  S
H1823      C1864   1.081       .  S
C1824      N1848   1.339       .  A
C1824      C1828   1.469       .  S
C1824      H1853   1.082       .  S
Co1825     N1843   2.079       .  S
Co1825     N1833   2.084       .  S
Co1825    Cl1869   2.447       .  S
N1826      C1864   1.348       .  A
N1826      N1833   1.315       .  A
N1826     Co1827   2.089       .  S
Co1827     N1830   2.087       .  S
Co1827    Cl1869   2.460       .  S
C1828      N1866   1.350       .  A
C1828      C1887   1.479       .  S
N1829      N1836   1.317       .  A
N1829      N1859   1.329       .  A
N1829     Co1862   2.115       .  S
N1830      N1848   1.323       .  A
N1830      N1866   1.324       .  A
N1831      C1860   1.351       .  A
N1831      N1841   1.320       .  A
H1832      C1857   1.081       .  S
N1833      N1854   1.323       .  A
N1834      N1852   1.321       .  A
N1834      N1839   1.324       .  A
C1835      N1839   1.349       .  A
C1835      C1863   1.468       .  S
C1835      C1904   1.486       .  S
N1836      C1851   1.334       .  A
N1836     Co1858   2.053       .  S
C1837      N1865   1.332       .  A
C1837      C1840   1.460       .  S
C1837      H1871   1.082       .  S
C1840      N1861   1.353       .  A
C1840      C1994   1.482       .  S
N1841      N1847   1.319       .  A
N1842      C1868   1.342       .  A
N1842      N1844   1.322       .  A
N1843      C1857   1.340       .  A
N1844      N1872   1.326       .  A
H1845      C1868   1.081   1_545  S
H1846      C1863   1.081       .  S
N1848     Co1862   2.100       .  S
N1849      N1861   1.332       .  A
N1849      N1865   1.317       .  A
C1850      N1854   1.351       .  A
C1850      C1864   1.466       .  S
C1850      C1967   1.489       .  S
C1851      C1870   1.450       .  S
C1851      H1855   1.081   1_565  S
N1852      C1863   1.342       .  A
C1856      N1872   1.354       .  A
C1856      C1868   1.465       .  S
C1856      C1897   1.481   1_565  S
Co1858    Cl1869   2.457       .  S
N1859      C1870   1.360       .  A
C1860      C1954   1.505       .  S
Co1862    Cl1869   2.443       .  S
C1870      C1874   1.477   1_565  S
C1873      H1880   1.082       .  S
C1873      C1878   1.400       .  A
C1874      C1875   1.396       .  A
C1875     Br1882   1.917   1_545  S
C1876      H1881   1.076       .  S
C1876      C1877   1.416       .  A
C1877      C1878   1.415       .  A
C1878     Br1879   1.919       .  S
C1883      H1890   1.083       .  S
C1883      C1884   1.408       .  A
C1883      C1888   1.408       .  A
C1884      C1885   1.414       .  A
C1885      C1886   1.389       .  A
C1885     Br1892   1.922       .  S
C1886      H1891   1.080       .  S
C1886      C1887   1.397       .  A
C1887      C1888   1.410       .  A
C1888     Br1889   1.917       .  S
C1893      H1900   1.084       .  S
C1893      C1894   1.401       .  A
C1893      C1898   1.400       .  A
C1894      C1895   1.419       .  A
C1895     Br1902   1.921       .  S
C1896      H1901   1.083       .  S
C1896      C1897   1.399       .  A
C1903      H1910   1.084       .  S
C1903      C1904   1.403       .  A
C1903      C1908   1.405       .  A
C1904      C1905   1.412       .  A
C1905      C1906   1.398       .  A
C1905     Br1912   1.915       .  S
C1906      H1911   1.084       .  S
C1906      C1907   1.405       .  A
C1907      C1908   1.415       .  A
C1908     Br1909   1.912       .  S
C1913      H1920   1.083       .  S
C1913      C1918   1.403       .  A
C1914      C1915   1.412       .  A
C1915     Br1922   1.919       .  S
C1916      H1921   1.080       .  S
C1916      C1917   1.408       .  A
C1917      C1918   1.413       .  A
C1918     Br1919   1.912       .  S
C1923      H1930   1.080       .  S
C1923      C1924   1.411       .  A
C1923      C1928   1.408       .  A
C1924      C1925   1.414       .  A
C1925      C1926   1.397       .  A
C1925     Br1932   1.913       .  S
C1926      H1931   1.083       .  S
C1926      C1927   1.400       .  A
C1927      C1928   1.408       .  A
C1928     Br1929   1.917       .  S
C1933      H1940   1.083       .  S
C1933      C1934   1.408       .  A
C1933      C1938   1.405       .  A
C1934      C1935   1.411       .  A
C1935     Br1942   1.909       .  S
C1936      H1941   1.084       .  S
C1936      C1937   1.399       .  A
C1938     Br1939   1.918       .  S
C1943      H1950   1.083       .  S
C1943      C1944   1.398       .  A
C1943      C1948   1.400       .  A
C1944      C1945   1.409       .  A
C1945      C1946   1.397       .  A
C1945     Br1952   1.912       .  S
C1946      H1951   1.084       .  S
C1946      C1947   1.402       .  A
C1947      C1948   1.412       .  A
C1948     Br1949   1.916       .  S
C1953      H1960   1.083       .  S
C1953      C1954   1.401       .  A
C1953      C1958   1.389       .  A
C1954      C1955   1.420       .  A
C1955      C1956   1.419       .  A
C1955     Br1962   1.914       .  S
C1956      H1961   1.082       .  S
C1956      C1957   1.412       .  A
C1957      C1958   1.417       .  A
C1958     Br1959   1.918   1_554  S
C1963      H1970   1.083       .  S
C1963      C1964   1.409       .  A
C1963      C1968   1.410       .  A
C1964      C1965   1.397       .  A
C1965      C1966   1.394       .  A
C1965     Br1972   1.877       .  S
C1966      H1971   1.082       .  S
C1966      C1967   1.401       .  A
C1967      C1968   1.414       .  A
C1968     Br1969   1.916       .  S
C1973      H1980   1.085   1_556  S
C1973      C1974   1.402       .  A
C1973      C1978   1.386       .  A
C1974      C1975   1.418       .  A
C1975      C1976   1.407       .  A
C1975     Br1982   1.917       .  S
C1976      H1981   1.083       .  S
C1976      C1977   1.406       .  A
C1977      C1978   1.415       .  A
C1978     Br1979   1.924       .  S
C1983      H1990   1.080       .  S
C1983      C1984   1.410       .  A
C1983      C1988   1.404       .  A
C1984      C1985   1.406       .  A
C1985      C1986   1.398       .  A
C1985     Br1992   1.918       .  S
C1986      H1991   1.078       .  S
C1986      C1987   1.410       .  A
C1987      C1988   1.401       .  A
C1988     Br1989   1.910       .  S
C1993      H2000   1.085       .  S
C1993      C1994   1.388       .  A
C1993      C1998   1.382       .  A
C1994      C1995   1.410   1_565  A
C1995      C1996   1.418       .  A
C1995     Br2002   1.913       .  S
C1996      C1997   1.415   1_545  A
C1997      C1998   1.406       .  A
C1998     Br1999   1.866       .  S
C2003      H2010   1.071       .  S
C2003      C2004   1.409   1_565  A
C2003      C2008   1.403       .  A
C2004      C2005   1.423       .  A
C2005      C2006   1.397       .  A
C2006      H2011   1.084       .  S
C2006      C2007   1.391   1_545  A
C2007      C2008   1.405       .  A
C2008     Br2009   1.917       .  S
C2013      H2020   1.081       .  S
C2013      C2014   1.398       .  A
C2013      C2018   1.391       .  A
C2014      C2015   1.416       .  A
C2015      C2016   1.413       .  A
C2016      H2021   1.083       .  S
C2016      C2017   1.403       .  A
C2017      C2018   1.404       .  A
C2018     Br2019   1.902       .  S
C2023      H2030   1.074       .  S
C2023      C2024   1.410       .  A
C2023      C2028   1.400       .  A
C2024      C2025   1.424       .  A
C2025      C2026   1.392       .  A
C2026      C2027   1.386       .  A
C2027      C2028   1.403       .  A
C2028     Br2029   1.917       .  S
C2033      H2040   1.084       .  S
C2033      C2034   1.397       .  A
C2035      C2036   1.408       .  A
C2035     Br2042   1.919       .  S
C2036      H2041   1.070       .  S
C2036      C2037   1.414       .  A
C2037      C2038   1.428       .  A
C2043      H2050   1.084       .  S
C2043      C2044   1.403       .  A
C2043      C2048   1.402       .  A
C2044      C2045   1.413       .  A
C2045      C2046   1.400       .  A
C2045     Br2052   1.920       .  S
C2046      H2051   1.083       .  S
C2046      C2047   1.407       .  A
C2047      C2048   1.418       .  A
C2048     Br2049   1.918       .  S
C2053      C2058   1.407       .  A
C2054      C2055   1.414       .  A
C2055     Br2062   1.923       .  S
C2056      H2061   1.084       .  S
C2056      C2057   1.402       .  A
C2057      C2058   1.418       .  A
C2058     Br2059   1.918       .  S
C2063      H2070   1.084       .  S
C2063      C2064   1.407       .  A
C2063      C2068   1.400       .  A
C2064      C2065   1.397       .  A
C2065      C2066   1.393       .  A
C2065     Br2072   1.918       .  S
C2066      H2071   1.081       .  S
C2066      C2067   1.413       .  A
C2067      C2068   1.411       .  A
C2068     Br2069   1.916       .  S
C2073      H2080   1.084   1_545  S
C2073      C2074   1.392       .  A
C2075      C2076   1.404       .  A
C2075     Br2082   1.922       .  S
C2076      H2081   1.082       .  S
C2076      C2077   1.407       .  A
C2077      C2078   1.422       .  A
C2078     Br2079   1.916       .  S
C2083      H2090   1.084       .  S
C2083      C2084   1.407       .  A
C2083      C2088   1.407       .  A
C2084      C2085   1.413       .  A
C2085      C2086   1.395       .  A
C2085     Br2092   1.917       .  S
C2086      H2091   1.083       .  S
C2086      C2087   1.403       .  A
C2087      C2088   1.412       .  A
C2088     Br2089   1.916       .  S
C2093      C2098   1.403       .  A
C2095      C2096   1.395       .  A
C2096      H2101   1.084       .  S
C2096      C2097   1.400       .  A
C2097      C2098   1.413       .  A
C2098     Br2099   1.917       .  S
C2103      H2110   1.078       .  S
C2103      C2104   1.399       .  A
C2103      C2108   1.394       .  A
C2104      C2105   1.407       .  A
C2105      C2106   1.402       .  A
C2105     Br2112   1.919       .  S
C2106      H2111   1.078       .  S
C2106      C2107   1.407       .  A
C2107      C2108   1.409       .  A
C2108     Br2109   1.920       .  S
C2113      H2120   1.083       .  S
C2113      C2114   1.410       .  A
C2113      C2118   1.400       .  A
C2114      C2115   1.417       .  A
C2115      C2116   1.392       .  A
C2115     Br2122   1.904       .  S
C2116      H2121   1.085       .  S
C2116      C2117   1.394       .  A
C2117      C2118   1.399       .  A
C2118     Br2119   1.915       .  S
C2123      H2130   1.083       .  S
C2123      C2124   1.409       .  A
C2123      C2128   1.410       .  A
C2124      C2125   1.398       .  A
C2125      C2126   1.376       .  A
C2125     Br2132   1.901       .  S
C2126      H2131   1.081       .  S
C2126      C2127   1.402       .  A
C2127      C2128   1.415       .  A
C2128     Br2129   1.914       .  S
C2133      H2140   1.078       .  S
C2133      C2134   1.405       .  A
C2133      C2138   1.393       .  A
C2134      C2135   1.406       .  A
C2135      C2136   1.398       .  A
C2135     Br2142   1.918       .  S
C2136      H2141   1.084       .  S
C2136      C2137   1.407       .  A
C2137      C2138   1.400       .  A
C2138     Br2139   1.918       .  S
C2143      H2150   1.083       .  S
C2143      C2144   1.406       .  A
C2143      C2148   1.416       .  A
C2144      C2145   1.418       .  A
C2145      C2146   1.380       .  A
C2145     Br2152   1.930       .  S
C2146      H2151   1.082       .  S
C2146      C2147   1.397       .  A
C2147      C2148   1.426       .  A
C2148     Br2149   1.915       .  S
C2153      C2154   1.412       .  A
C2153      C2158   1.409       .  A
C2154      C2155   1.396       .  A
C2155      C2156   1.397       .  A
C2155     Br2162   1.907       .  S
C2156      H2161   1.079       .  S
C2156      C2157   1.413       .  A
C2157      C2158   1.413       .  A
C2158     Br2159   1.918       .  S
C2163      H2170   1.081       .  S
C2163      C2164   1.405       .  A
C2163      C2168   1.395       .  A
C2164      C2165   1.414       .  A
C2165      C2166   1.416       .  A
C2165     Br2172   1.917       .  S
C2166      H2171   1.081       .  S
C2166      C2167   1.413       .  A
C2167      C2168   1.414       .  A
C2168     Br2169   1.922       .  S
C2173      C2174   1.401       .  A
C2174      C2175   1.422       .  A
C2175      C2176   1.388       .  A
C2175     Br2182   1.918       .  S
C2176      H2181   1.082       .  S
C2176      C2177   1.394       .  A
C2178     Br2179   1.916       .  S
C2183      C2184   1.403       .  A
C2183      C2188   1.399       .  A
C2184      C2185   1.400       .  A
C2185      C2186   1.389       .  A
C2185     Br2192   1.919       .  S
C2186      H2191   1.077       .  S
C2186      C2187   1.411       .  A
C2187      C2188   1.408       .  A
