geometry optimzed in LAMMPS
_audit_creation_date              2020-12-01 
_audit_creation_method            'lammps2cif' 
_symmetry_space_group_name_H-M    'P1' 
_symmetry_Int_Tables_number       1 
_symmetry_cell_setting            triclinic 
loop_ 
_symmetry_equiv_pos_as_xyz 
  x,y,z 
_cell_length_a                    44.12139079 
_cell_length_b                    44.11028488809918 
_cell_length_c                    30.689207669281583 
_cell_angle_alpha                 90.00652862147108 
_cell_angle_beta                  90.00686071665223 
_cell_angle_gamma                 90.00529128497693 
loop_ 
_atom_site_label 
_atom_site_type_symbol 
_atom_site_fract_x 
_atom_site_fract_y 
_atom_site_fract_z 
_atom_site_charge 
O1          O  0.39722771  0.86939996  0.93295949    -0.73200
O2          O  0.39910758  0.86964406  0.06401021    -0.74200
O3          O  0.39616417  0.82429765  0.99910156    -0.62800
O4          O  0.40041358  0.91514382  0.99792066    -0.71200
O5          O  0.35023145  0.91744790  0.00030917    -0.70800
O6          O  0.34582623  0.82655236  0.99983266    -0.62000
O7          O  0.34883956  0.87128809  0.06498667    -0.74600
O8          O  0.34703496  0.87243579  0.93478195    -0.73300
Cu9        Cu  0.40001668  0.86958528  0.99841552     1.04600
Cu10       Cu  0.34625675  0.87206284  0.99998812     1.04300
C11         C  0.37175956  0.87117632  0.91324504     0.93000
C12         C  0.37411162  0.86960444  0.08509218     0.92100
C13         C  0.37036446  0.81123531  0.00014391     0.84300
C14         C  0.37597972  0.93068450  0.99857022     0.90500
O15         O  0.39507736  0.87139922  0.56526866    -0.73200
O16         O  0.39702799  0.86915374  0.43466416    -0.74200
O17         O  0.39538276  0.91579676  0.49837359    -0.62800
O18         O  0.39697800  0.82496919  0.50144434    -0.71200
O19         O  0.34661320  0.82399556  0.49964939    -0.70800
O20         O  0.34510219  0.91491128  0.49775438    -0.62000
O21         O  0.34679711  0.86847672  0.43340248    -0.74600
O22         O  0.34484840  0.87019428  0.56403273    -0.73300
Cu23       Cu  0.39787308  0.87038411  0.50000016     1.04600
Cu24       Cu  0.34408320  0.86939151  0.49864592     1.04300
C25         C  0.36970305  0.87130850  0.58534955     0.93000
C26         C  0.37218232  0.86798801  0.41335241     0.92100
C27         C  0.37000126  0.92971680  0.49759714     0.84300
C28         C  0.37206874  0.81028343  0.50076783     0.90500
O29         O  0.35288188  0.26397503  0.01127076    -0.73200
O30         O  0.35479668  0.17309842  0.00527683    -0.74200
O31         O  0.35477581  0.21655070  0.07364055    -0.62800
O32         O  0.35303508  0.22043893  0.94320462    -0.71200
O33         O  0.40332007  0.22043887  0.94186797    -0.70800
O34         O  0.40499100  0.21791379  0.07248862    -0.62000
O35         O  0.40508472  0.17376175  0.00524198    -0.74600
O36         O  0.40322164  0.26484775  0.00903811    -0.73300
Cu37       Cu  0.35213055  0.21848157  0.00844350     1.04600
Cu38       Cu  0.40592553  0.21930799  0.00715214     1.04300
C39         C  0.37780192  0.27865346  0.01079802     0.93000
C40         C  0.38012833  0.15909045  0.00388266     0.92100
C41         C  0.38013549  0.21689596  0.09377441     0.84300
C42         C  0.37790055  0.22090245  0.92190634     0.90500
O43         O  0.34714922  0.17371786  0.50760734    -0.73200
O44         O  0.35248250  0.26456468  0.50664207    -0.74200
O45         O  0.35010342  0.21869239  0.44177762    -0.62800
O46         O  0.34976393  0.21965218  0.57286535    -0.71200
O47         O  0.39990745  0.21676163  0.57264102    -0.70800
O48         O  0.40028840  0.21557326  0.44236879    -0.62000
O49         O  0.40277597  0.26170799  0.50680434    -0.74600
O50         O  0.39732809  0.17086136  0.50810372    -0.73300
Cu51       Cu  0.34809151  0.21925549  0.50724202     1.04600
Cu52       Cu  0.40179590  0.21612464  0.50751815     1.04300
C53         C  0.37141833  0.15791857  0.50734553     0.93000
C54         C  0.37843573  0.27735428  0.50660648     0.92100
C55         C  0.37531969  0.21698812  0.42141733     0.84300
C56         C  0.37494574  0.21873322  0.59348238     0.90500
O57         O  0.91280531  0.75414796  0.99329621    -0.73200
O58         O  0.82198449  0.75339042  0.99399080    -0.74200
O59         O  0.86761171  0.75530433  0.05874727    -0.62800
O60         O  0.86682336  0.75221140  0.92805880    -0.71200
O61         O  0.86703875  0.70194174  0.93033255    -0.70800
O62         O  0.86822623  0.70502807  0.06093738    -0.62000
O63         O  0.82246866  0.70300967  0.99659703    -0.74600
O64         O  0.91317882  0.70380333  0.99455754    -0.73300
Cu65       Cu  0.86734084  0.75553452  0.99335939     1.04600
Cu66       Cu  0.86779550  0.70169119  0.99565329     1.04300
C67         C  0.92728885  0.72908127  0.99425847     0.93000
C68         C  0.80805732  0.72806628  0.99573037     0.92100
C69         C  0.86758361  0.73060411  0.08049326     0.84300
C70         C  0.86630437  0.72661496  0.90855356     0.90500
O71         O  0.82767862  0.75226998  0.49693578    -0.73200
O72         O  0.91862147  0.75566590  0.49501208    -0.74200
O73         O  0.87250658  0.75588805  0.43060113    -0.62800
O74         O  0.87378546  0.75205196  0.56142973    -0.71200
O75         O  0.87419736  0.70179846  0.55878661    -0.70800
O76         O  0.87486794  0.70571927  0.42825066    -0.62000
O77         O  0.91994964  0.70557324  0.49404097    -0.74600
O78         O  0.82928463  0.70197123  0.49292146    -0.73300
Cu79       Cu  0.87305572  0.75574215  0.49612097     1.04600
Cu80       Cu  0.87464994  0.70203889  0.49337389     1.04300
C81         C  0.81429051  0.72664083  0.49503859     0.93000
C82         C  0.93381134  0.73103550  0.49461157     0.92100
C83         C  0.87399004  0.73127833  0.40871619     0.84300
C84         C  0.87412116  0.72638720  0.58077651     0.90500
O85         O  0.17062098  0.74582017  0.00695159    -0.73200
O86         O  0.26156323  0.74503863  0.00529178    -0.74200
O87         O  0.21520894  0.74528093  0.94059428    -0.62800
O88         O  0.21679130  0.74584546  0.07129320    -0.71200
O89         O  0.21538114  0.69559037  0.07167837    -0.70800
O90         O  0.21536472  0.69499605  0.94091525    -0.62000
O91         O  0.26091448  0.69466013  0.00639345    -0.74600
O92         O  0.16991268  0.69572931  0.00591018    -0.73300
Cu93       Cu  0.21607754  0.74724728  0.00599587     1.04600
Cu94       Cu  0.21539417  0.69349207  0.00625709     1.04300
C95         C  0.15572394  0.72094343  0.00643836     0.93000
C96         C  0.27547390  0.71966402  0.00601644     0.92100
C97         C  0.21475590  0.72007319  0.92008937     0.84300
C98         C  0.21609580  0.72080680  0.09217536     0.90500
O99         O  0.22335100  0.74550884  0.44103518    -0.73200
O100        O  0.22239447  0.74481083  0.57158577    -0.74200
O101        O  0.26818009  0.74331610  0.50687216    -0.62800
O102        O  0.17744872  0.74701102  0.50521743    -0.71200
O103        O  0.17531415  0.69670602  0.50583026    -0.70800
O104        O  0.26636112  0.69295717  0.50593698    -0.62000
O105        O  0.22060555  0.69453478  0.57125809    -0.74600
O106        O  0.22116364  0.69524776  0.44043161    -0.73300
Cu107      Cu  0.22288829  0.74689947  0.50625923     1.04600
Cu108      Cu  0.22075958  0.69307804  0.50586767     1.04300
C109        C  0.22275714  0.72048896  0.42010136     0.93000
C110        C  0.22163199  0.71960960  0.59207401     0.92100
C111        C  0.28148716  0.71763214  0.50626301     0.84300
C112        C  0.16208357  0.72247436  0.50533414     0.90500
O113        O  0.75036311  0.22823413  0.92788555    -0.73200
O114        O  0.74936282  0.22599668  0.05838968    -0.74200
O115        O  0.74888798  0.18152361  0.99137997    -0.62800
O116        O  0.75070654  0.27259913  0.99504189    -0.71200
O117        O  0.70034498  0.27344709  0.99334952    -0.70800
O118        O  0.69863940  0.18264669  0.99128649    -0.62000
O119        O  0.69910562  0.22758760  0.05783858    -0.74600
O120        O  0.70010752  0.22873257  0.92722561    -0.73300
Cu121      Cu  0.75159839  0.22702186  0.99321670     1.04600
Cu122      Cu  0.69780230  0.22809850  0.99243131     1.04300
C123        C  0.72536479  0.22907489  0.90689014     0.93000
C124        C  0.72413459  0.22696945  0.07876857     0.92100
C125        C  0.72342472  0.16770568  0.99027647     0.84300
C126        C  0.72574506  0.28724181  0.99469216     0.90500
O127        O  0.75258910  0.22761486  0.55804087    -0.73200
O128        O  0.75170156  0.22386295  0.42726737    -0.74200
O129        O  0.75248083  0.27088390  0.49025893    -0.62800
O130        O  0.75221471  0.18037611  0.49549550    -0.71200
O131        O  0.70194581  0.18014321  0.49566524    -0.70800
O132        O  0.70208707  0.27113645  0.49111250    -0.62000
O133        O  0.70144529  0.22405539  0.42804812    -0.74600
O134        O  0.70229493  0.22723245  0.55841707    -0.73300
Cu135      Cu  0.75399561  0.22566477  0.49266014     1.04600
Cu136      Cu  0.70017206  0.22564727  0.49326282     1.04300
C137        C  0.72750516  0.22818679  0.57884271     0.93000
C138        C  0.72639016  0.22323918  0.40698600     0.92100
C139        C  0.72738182  0.28519431  0.49039067     0.84300
C140        C  0.72717027  0.16591226  0.49700073     0.90500
O141        O  0.69385143  0.92535225  0.99596673    -0.73200
O142        O  0.69174406  0.83461806  0.99796947    -0.74200
O143        O  0.69431870  0.88025498  0.06251618    -0.62800
O144        O  0.69200659  0.87952688  0.93147338    -0.71200
O145        O  0.74226383  0.87765870  0.93013809    -0.70800
O146        O  0.74456842  0.87972430  0.06041149    -0.62000
O147        O  0.74211714  0.83337197  0.99706578    -0.74600
O148        O  0.74407142  0.92433039  0.99334853    -0.73300
Cu149      Cu  0.69121085  0.88000969  0.99708085     1.04600
Cu150      Cu  0.74500345  0.87876946  0.99521233     1.04300
C151        C  0.71920569  0.93920952  0.99341102     0.93000
C152        C  0.71656237  0.81980465  0.99811750     0.92100
C153        C  0.71988570  0.87953021  0.08212403     0.84300
C154        C  0.71689563  0.87860332  0.91016383     0.90500
O155        O  0.70092789  0.92383609  0.49666519    -0.73200
O156        O  0.69793143  0.83285553  0.49406026    -0.74200
O157        O  0.69789546  0.87775401  0.56045207    -0.62800
O158        O  0.70072645  0.87899460  0.43010672    -0.71200
O159        O  0.75094228  0.87685835  0.43173359    -0.70800
O160        O  0.74814156  0.87699042  0.56264214    -0.62000
O161        O  0.74825220  0.83147879  0.49696755    -0.74600
O162        O  0.75117157  0.92239335  0.49762202    -0.73300
Cu163      Cu  0.69762910  0.87841790  0.49518190     1.04600
Cu164      Cu  0.75139583  0.87686278  0.49727508     1.04300
C165        C  0.72646070  0.93748435  0.49826065     0.93000
C166        C  0.72271354  0.81794344  0.49524280     0.92100
C167        C  0.72257367  0.87771503  0.58221197     0.84300
C168        C  0.72613809  0.87766181  0.41024993     0.90500
O169        O  0.37931124  0.41621486  0.05263210    -0.73200
O170        O  0.37660416  0.32525704  0.04892718    -0.74200
O171        O  0.42333041  0.36932523  0.05195290    -0.62800
O172        O  0.33225619  0.37226254  0.04928747    -0.71200
O173        O  0.33354146  0.37354039  0.97690122    -0.70800
O174        O  0.42411341  0.37100816  0.97974522    -0.62000
O175        O  0.37796158  0.32669265  0.97655342    -0.74600
O176        O  0.38019539  0.41764441  0.98041981    -0.73300
Cu177      Cu  0.37778803  0.37071600  0.05326757     1.04600
Cu178      Cu  0.37893732  0.37226565  0.97590769     1.04300
C179        C  0.38052563  0.43131065  0.01712871     0.93000
C180        C  0.37730018  0.31173245  0.01215933     0.92100
C181        C  0.43808492  0.36946778  0.01609778     0.84300
C182        C  0.31868380  0.37346161  0.01256194     0.90500
O183        O  0.42733684  0.36884255  0.47220085    -0.73200
O184        O  0.33666502  0.37216104  0.47220809    -0.74200
O185        O  0.38393461  0.41599091  0.47386709    -0.62800
O186        O  0.38027462  0.32496636  0.47108532    -0.71200
O187        O  0.38121371  0.32424545  0.54350398    -0.70800
O188        O  0.38261521  0.41516279  0.54617143    -0.62000
O189        O  0.33642869  0.37034065  0.54460616    -0.74600
O190        O  0.42751718  0.36926653  0.54454195    -0.73300
Cu191      Cu  0.38204516  0.37052255  0.46980913     1.04600
Cu192      Cu  0.38195260  0.36968828  0.54725993     1.04300
C193        C  0.44175788  0.36880017  0.50826777     0.93000
C194        C  0.32233192  0.37155192  0.50830497     0.92100
C195        C  0.38398238  0.42990930  0.51041423     0.84300
C196        C  0.38019417  0.31037966  0.50702468     0.90500
O197        O  0.36927904  0.76251188  0.96809767    -0.73200
O198        O  0.36831904  0.67187410  0.97704812    -0.74200
O199        O  0.32322173  0.71751482  0.97113424    -0.62800
O200        O  0.41410859  0.71685972  0.97412474    -0.71200
O201        O  0.41322453  0.72047083  0.04622908    -0.70800
O202        O  0.32229267  0.72060567  0.04342280    -0.62000
O203        O  0.36782152  0.67497530  0.04921928    -0.74600
O204        O  0.36805789  0.76574978  0.04037764    -0.73300
Cu205      Cu  0.36873626  0.71704070  0.97009179     1.04600
Cu206      Cu  0.36776205  0.72054014  0.04736866     1.04300
C207        C  0.36902290  0.77830787  0.00292674     0.93000
C208        C  0.36802236  0.65908727  0.01438852     0.92100
C209        C  0.30852859  0.71923173  0.00687222     0.84300
C210        C  0.42802332  0.71902154  0.01051708     0.90500
O211        O  0.32946330  0.71725252  0.54076390    -0.73200
O212        O  0.42045552  0.71936444  0.53665420    -0.74200
O213        O  0.37395671  0.76352043  0.53788268    -0.62800
O214        O  0.37619420  0.67274597  0.53982271    -0.71200
O215        O  0.37452563  0.67171774  0.46758202    -0.70800
O216        O  0.37218474  0.76269717  0.46547999    -0.62000
O217        O  0.41877280  0.71847524  0.46444574    -0.74600
O218        O  0.32799493  0.71618338  0.46836776    -0.73300
Cu219      Cu  0.37505952  0.71820030  0.54131480     1.04600
Cu220      Cu  0.37332201  0.71720110  0.46393022     1.04300
C221        C  0.31450910  0.71670343  0.50514353     0.93000
C222        C  0.43399924  0.71923859  0.49983356     0.92100
C223        C  0.37273605  0.77730421  0.50138859     0.84300
C224        C  0.37559516  0.65785563  0.50411626     0.90500
O225        O  0.67803960  0.37996555  0.96631841    -0.73200
O226        O  0.76895412  0.38090800  0.95661579    -0.74200
O227        O  0.72372126  0.33496055  0.96003719    -0.62800
O228        O  0.72283628  0.42569831  0.96238935    -0.71200
O229        O  0.72565124  0.42503091  0.03453399    -0.70800
O230        O  0.72826866  0.33401930  0.03217549    -0.62000
O231        O  0.77223663  0.38090810  0.02889277    -0.74600
O232        O  0.68179270  0.37819645  0.03839424    -0.73300
Cu233      Cu  0.72328242  0.38040052  0.95879247     1.04600
Cu234      Cu  0.72713897  0.37950393  0.03601671     1.04300
C235        C  0.66560985  0.37909266  0.00392182     0.93000
C236        C  0.78480191  0.38119215  0.99145726     0.92100
C237        C  0.72609485  0.32027071  0.99568739     0.84300
C238        C  0.72404849  0.43974981  0.99871872     0.90500
O239        O  0.72957739  0.42378843  0.45954003    -0.73200
O240        O  0.72734335  0.33295098  0.45543642    -0.74200
O241        O  0.68304436  0.37932421  0.46004068    -0.62800
O242        O  0.77388977  0.37759963  0.45472523    -0.71200
O243        O  0.77572737  0.37577667  0.52707359    -0.70800
O244        O  0.68489470  0.37807923  0.53219779    -0.62000
O245        O  0.72905293  0.33168176  0.52783481    -0.74600
O246        O  0.73151059  0.42226087  0.53176000    -0.73300
Cu247      Cu  0.72838168  0.37845087  0.45488483     1.04600
Cu248      Cu  0.73036309  0.37687422  0.53223843     1.04300
C249        C  0.73116300  0.43736059  0.49625446     0.93000
C250        C  0.72779465  0.31814094  0.49115610     0.92100
C251        C  0.66956957  0.37919480  0.49688385     0.84300
C252        C  0.78902235  0.37657705  0.49013828     0.90500
O253        O  0.71652393  0.77314920  0.03590743    -0.73200
O254        O  0.71710202  0.68222924  0.03830859    -0.74200
O255        O  0.76202111  0.72808304  0.03447619    -0.62800
O256        O  0.67143719  0.72699173  0.03994257    -0.71200
O257        O  0.66925587  0.72627529  0.96774693    -0.70800
O258        O  0.75996706  0.72708459  0.96207448    -0.62000
O259        O  0.71463041  0.68149870  0.96606456    -0.74600
O260        O  0.71446940  0.77213944  0.96352215    -0.73300
Cu261      Cu  0.71684465  0.72770185  0.03971436     1.04600
Cu262      Cu  0.71451661  0.72676502  0.96232119     1.04300
C263        C  0.71572915  0.78683760  0.99927046     0.93000
C264        C  0.71540402  0.66754525  0.00250007     0.92100
C265        C  0.77515424  0.72774345  0.99745478     0.84300
C266        C  0.65601701  0.72566773  0.00477149     0.90500
O267        O  0.67630176  0.72544369  0.45950833    -0.73200
O268        O  0.76703948  0.72477445  0.45913591    -0.74200
O269        O  0.72127339  0.67941446  0.46000462    -0.62800
O270        O  0.72197156  0.77057484  0.45900783    -0.71200
O271        O  0.72165681  0.77078290  0.53145140    -0.70800
O272        O  0.72211939  0.67996850  0.53228480    -0.62000
O273        O  0.76723598  0.72580774  0.53157875    -0.74600
O274        O  0.67638354  0.72520615  0.53181699    -0.73300
Cu275      Cu  0.72163466  0.72498555  0.45685394     1.04600
Cu276      Cu  0.72183337  0.72539711  0.53430511     1.04300
C277        C  0.66200257  0.72582646  0.49567595     0.93000
C278        C  0.78132930  0.72558717  0.49526753     0.92100
C279        C  0.72155046  0.66530932  0.49639166     0.84300
C280        C  0.72194652  0.78490427  0.49517531     0.90500
O281        O  0.22846888  0.35174591  0.94085214    -0.73200
O282        O  0.22257348  0.35113831  0.07134009    -0.74200
O283        O  0.17991724  0.35272996  0.00186717    -0.62800
O284        O  0.27065793  0.34989501  0.01025392    -0.71200
O285        O  0.27226017  0.40026032  0.00977093    -0.70800
O286        O  0.18128397  0.40298109  0.00286563    -0.62000
O287        O  0.22460456  0.40137479  0.07176290    -0.74600
O288        O  0.22907311  0.40207419  0.94119877    -0.73300
Cu289      Cu  0.22529570  0.34963246  0.00607726     1.04600
Cu290      Cu  0.22681873  0.40344060  0.00647401     1.04300
C291        C  0.22991575  0.37697353  0.92047985     0.93000
C292        C  0.22296850  0.37619211  0.09222926     0.92100
C293        C  0.16624045  0.37826030  0.00064693     0.84300
C294        C  0.28566508  0.37461271  0.01105746     0.90500
O295        O  0.18472958  0.39962662  0.50567596    -0.73200
O296        O  0.27563624  0.39772723  0.50734836    -0.74200
O297        O  0.23071696  0.39887616  0.44120848    -0.62800
O298        O  0.22973798  0.39842274  0.57189774    -0.71200
O299        O  0.22805416  0.34821116  0.57146636    -0.70800
O300        O  0.23032249  0.34859021  0.44070409    -0.62000
O301        O  0.27455068  0.34734732  0.50775964    -0.74600
O302        O  0.18357302  0.34956298  0.50401066    -0.73300
Cu303      Cu  0.23022911  0.40040397  0.50657100     1.04600
Cu304      Cu  0.22905969  0.34666961  0.50601942     1.04300
C305        C  0.16959969  0.37491941  0.50423120     0.93000
C306        C  0.28931064  0.37223765  0.50791894     0.92100
C307        C  0.23095835  0.37382167  0.42029722     0.84300
C308        C  0.22869173  0.37323571  0.59242548     0.90500
O309        O  0.92322944  0.40665938  0.98940518    -0.73200
O310        O  0.83204438  0.40664483  0.99026417    -0.74200
O311        O  0.87793785  0.40517705  0.05518722    -0.62800
O312        O  0.87732220  0.40794983  0.92416108    -0.71200
O313        O  0.87819037  0.35775003  0.92265050    -0.70800
O314        O  0.87674935  0.35487986  0.05289156    -0.62000
O315        O  0.83209111  0.35631236  0.98693387    -0.74600
O316        O  0.92306873  0.35640018  0.98847201    -0.73300
Cu317      Cu  0.87764506  0.40840396  0.98980082     1.04600
Cu318      Cu  0.87755248  0.35462126  0.98762920     1.04300
C319        C  0.93757071  0.38148141  0.98863603     0.93000
C320        C  0.81782687  0.38144120  0.98892220     0.92100
C321        C  0.87702191  0.37955981  0.07462624     0.84300
C322        C  0.87747810  0.38311183  0.90265312     0.90500
O323        O  0.92640435  0.40521419  0.48947148    -0.73200
O324        O  0.83564417  0.40252436  0.48545191    -0.74200
O325        O  0.87952572  0.40597596  0.55237730    -0.62800
O326        O  0.88243157  0.40154915  0.42199751    -0.71200
O327        O  0.88214382  0.35135001  0.42488541    -0.70800
O328        O  0.88277471  0.35580721  0.55557322    -0.62000
O329        O  0.83688112  0.35230267  0.49113029    -0.74600
O330        O  0.92789704  0.35487216  0.48957484    -0.73300
Cu331      Cu  0.88095976  0.40555682  0.48711572     1.04600
Cu332      Cu  0.88247358  0.35179918  0.49037455     1.04300
C333        C  0.94142726  0.38047550  0.49006190     0.93000
C334        C  0.82204149  0.37708932  0.48857613     0.92100
C335        C  0.88075535  0.38151876  0.57456996     0.84300
C336        C  0.88267345  0.37585163  0.40270737     0.90500
C337        C  0.86836220  0.36030258  0.78368429    -0.11700
C338        C  0.88185210  0.38495282  0.76249262     0.14900
C339        C  0.89291774  0.40947997  0.78734017     0.01800
C340        C  0.89039253  0.40870827  0.83282392    -0.16000
C341        C  0.87738001  0.38372327  0.85432493    -0.10800
C342        C  0.86567403  0.35951388  0.82901924     0.08500
C343        C  0.88263255  0.38479368  0.71434153     0.09500
S344        S  0.91094386  0.44204636  0.76301359    -0.25200
H345        H  0.89947005  0.42743521  0.85159453     0.19800
S346        S  0.84565345  0.32765186  0.85195219    -0.30900
H347        H  0.85924219  0.34175637  0.76454586     0.10100
C348        C  0.90164704  0.36474765  0.69133356     0.03300
C349        C  0.90031790  0.36394845  0.64571952    -0.13200
C350        C  0.88039858  0.38285805  0.62261424    -0.08800
C351        C  0.86120237  0.40279896  0.64589234     0.06800
C352        C  0.86278425  0.40377783  0.69140283    -0.13900
S353        S  0.92806365  0.34067867  0.72007419    -0.30800
H354        H  0.91513382  0.34882192  0.62787603     0.11000
S355        S  0.83302428  0.42619659  0.61979612    -0.27900
H356        H  0.84779816  0.41879722  0.70920571     0.08200
H357        H  0.82915959  0.34524300  0.88199257     0.26700
H358        H  0.94164725  0.32772922  0.68302067     0.21500
H359        H  0.82516297  0.40462988  0.58795285     0.26800
H360        H  0.92321636  0.42661714  0.72702091     0.15600
C361        C  0.85988771  0.35754985  0.19176740    -0.11700
C362        C  0.88075691  0.37569431  0.21426710     0.14900
C363        C  0.90013359  0.39517860  0.19065324     0.01800
C364        C  0.89771643  0.39664333  0.14528000    -0.16000
C365        C  0.87691732  0.37847096  0.12264904    -0.10800
C366        C  0.85754016  0.35893262  0.14631431     0.08500
C367        C  0.88047285  0.37532990  0.26242435     0.09500
S368        S  0.92836532  0.41873724  0.21642770    -0.25200
H369        H  0.91278938  0.41151856  0.12736184     0.19800
S370        S  0.82829873  0.33653744  0.12077718    -0.30900
H371        H  0.84469410  0.34291591  0.20988213     0.10100
C372        C  0.86750552  0.39930290  0.28624689     0.03300
C373        C  0.86881589  0.39886802  0.33184147    -0.13200
C374        C  0.88279234  0.37488956  0.35437662    -0.08800
C375        C  0.89584518  0.35083801  0.33013208     0.06800
C376        C  0.89406446  0.35110509  0.28455363    -0.13900
S377        S  0.84879752  0.43022365  0.25852362    -0.30800
H378        H  0.85853997  0.41718414  0.35007672     0.11000
S379        S  0.91661738  0.32014283  0.35483934    -0.27900
H380        H  0.90426687  0.33282016  0.26608588     0.08200
H381        H  0.82144113  0.35791050  0.08822172     0.26700
H382        H  0.84038037  0.44650138  0.29602972     0.21500
H383        H  0.93170100  0.33874302  0.38513343     0.26800
H384        H  0.93348589  0.39985285  0.25255580     0.15600
C385        C  0.02247826  0.39822890  0.52231288    -0.11700
C386        C  0.03862139  0.38300814  0.48952984     0.14900
C387        C  0.02250445  0.36729335  0.45676920     0.01800
C388        C  0.99083707  0.36628680  0.45830338    -0.16000
C389        C  0.97474387  0.38143656  0.49110754    -0.10800
C390        C  0.99077652  0.39758440  0.52348220     0.08500
C391        C  0.07209076  0.38138941  0.49281610     0.09500
S392        S  0.04100962  0.34843945  0.41191701    -0.25200
H393        H  0.97860951  0.35413592  0.43313874     0.19800
S394        S  0.97219912  0.41638122  0.56833532    -0.30900
H395        H  0.03471694  0.40986396  0.54796653     0.10100
C396        C  0.09050689  0.40729270  0.48884062     0.03300
C397        C  0.12203568  0.40445186  0.49331667    -0.13200
C398        C  0.13581798  0.37619311  0.50176938    -0.08800
C399        C  0.11689337  0.35029814  0.50604813     0.06800
C400        C  0.08551966  0.35324858  0.50126722    -0.13900
S401        S  0.07399061  0.44378057  0.47646121    -0.30800
H402        H  0.13601850  0.42443166  0.48956251     0.11000
S403        S  0.13065251  0.31283515  0.51836905    -0.27900
H404        H  0.07126428  0.33338213  0.50484353     0.08200
H405        H  0.94868274  0.39506885  0.57263033     0.26700
H406        H  0.10124208  0.46031673  0.47544553     0.21500
H407        H  0.14740902  0.32256591  0.55466659     0.26800
H408        H  0.06615763  0.36799190  0.41013263     0.15600
C409        C  0.25063217  0.35655283  0.80402845    -0.11700
C410        C  0.23159090  0.37611323  0.78067405     0.14900
C411        C  0.21279402  0.39660809  0.80347778     0.01800
C412        C  0.21354391  0.39715885  0.84902814    -0.16000
C413        C  0.23211589  0.37716872  0.87251580    -0.10800
C414        C  0.25140883  0.35715035  0.84960729     0.08500
C415        C  0.23212141  0.37497082  0.73257534     0.09500
S416        S  0.18718896  0.42241082  0.77648668    -0.25200
H417        H  0.19879056  0.41268990  0.86629963     0.19800
S418        S  0.27858508  0.33303240  0.87650276    -0.30900
H419        H  0.26543780  0.34116263  0.78655737     0.10100
C420        C  0.24660087  0.39760460  0.70784487     0.03300
C421        C  0.24486342  0.39659451  0.66223947    -0.13200
C422        C  0.22901336  0.37330255  0.64074775    -0.08800
C423        C  0.21464549  0.35056498  0.66596382     0.06800
C424        C  0.21677689  0.35140962  0.71141756    -0.13900
S425        S  0.26766049  0.42746666  0.73443905    -0.30800
H426        H  0.25622093  0.41385059  0.64319953     0.11000
S427        S  0.19150570  0.32115134  0.64255010    -0.27900
H428        H  0.20539744  0.33418953  0.73058601     0.08200
H429        H  0.28526719  0.35363707  0.91016281     0.26700
H430        H  0.27672598  0.44269321  0.69633949     0.21500
H431        H  0.17720847  0.34094517  0.61310730     0.26800
H432        H  0.18150444  0.40416621  0.73985538     0.15600
C433        C  0.20982800  0.35410156  0.21069521    -0.11700
C434        C  0.22747930  0.37586341  0.23221808     0.14900
C435        C  0.24310862  0.39792903  0.20763555     0.01800
C436        C  0.24031273  0.39805577  0.16224561    -0.16000
C437        C  0.22278294  0.37618921  0.14046080    -0.10800
C438        C  0.20700581  0.35421400  0.16526209     0.08500
C439        C  0.22824037  0.37558429  0.28036695     0.09500
S440        S  0.26716307  0.42632635  0.23209454    -0.25200
H441        H  0.25272979  0.41487037  0.14368399     0.19800
S442        S  0.18171997  0.32675861  0.14132783    -0.30900
H443        H  0.19751956  0.33737712  0.22957945     0.10100
C444        C  0.21220203  0.39721065  0.30502840     0.03300
C445        C  0.21398185  0.39641290  0.35062108    -0.13200
C446        C  0.23126689  0.37424065  0.37213035    -0.08800
C447        C  0.24752008  0.35272868  0.34713634     0.06800
C448        C  0.24547769  0.35339167  0.30164154    -0.13900
S449        S  0.18873821  0.42522681  0.27845133    -0.30800
H450        H  0.20131930  0.41272693  0.36967986     0.11000
S451        S  0.27236400  0.32485689  0.37100979    -0.27900
H452        H  0.25800976  0.33694515  0.28257317     0.08200
H453        H  0.17016977  0.34664179  0.10953315     0.26700
H454        H  0.17902494  0.44011911  0.31649813     0.21500
H455        H  0.28345396  0.34416000  0.40386179     0.26800
H456        H  0.27577414  0.40912127  0.26858544     0.15600
C457        C  0.08530189  0.40221234  0.97425702    -0.11700
C458        C  0.06864379  0.38034518  0.99720188     0.14900
C459        C  0.08421869  0.35732568  0.02001640     0.01800
C460        C  0.11594582  0.35679263  0.01962641    -0.16000
C461        C  0.13273051  0.37901152  0.99740491    -0.10800
C462        C  0.11703277  0.40160869  0.97365056     0.08500
C463        C  0.03510128  0.38121751  0.99479010     0.09500
S464        S  0.06495627  0.32825467  0.05069580    -0.25200
H465        H  0.12763825  0.33928882  0.03785036     0.19800
S466        S  0.13595722  0.42912253  0.93979727    -0.30900
H467        H  0.07341970  0.41946373  0.95578723     0.10100
C468        C  0.01820831  0.40387464  0.01619570     0.03300
C469        C  0.98645795  0.40376160  0.01299058    -0.13200
C470        C  0.97118056  0.38146714  0.98868816    -0.08800
C471        C  0.98837992  0.35932236  0.96622608     0.06800
C472        C  0.01999349  0.35921708  0.97001849    -0.13900
S473        S  0.03702564  0.43219110  0.04901304    -0.30800
H474        H  0.97341955  0.42068990  0.03034388     0.11000
S475        S  0.97162531  0.33152739  0.93050746    -0.27900
H476        H  0.03302883  0.34214974  0.95286591     0.08200
H477        H  0.15832231  0.40887933  0.92494340     0.26700
H478        H  0.01096412  0.44900787  0.05962319     0.21500
H479        H  0.94972506  0.35138748  0.91325988     0.26800
H480        H  0.03981568  0.34603440  0.06246390     0.15600
C481        C  0.74477717  0.52003222  0.46755745    -0.11700
C482        C  0.72791673  0.53458628  0.50011639     0.14900
C483        C  0.71307478  0.51707601  0.53217812     0.01800
C484        C  0.71551480  0.48548471  0.53101716    -0.16000
C485        C  0.73185516  0.47080214  0.49790712    -0.10800
C486        C  0.74725035  0.48843183  0.46641053     0.08500
C487        C  0.72642800  0.56804232  0.49976284     0.09500
S488        S  0.69025254  0.53353103  0.57486576    -0.25200
H489        H  0.70362340  0.47220853  0.55532887     0.19800
S490        S  0.77149494  0.47218209  0.42526553    -0.30900
H491        H  0.75654512  0.53347068  0.44330162     0.10100
C492        C  0.74237853  0.58566137  0.53040109     0.03300
C493        C  0.73994876  0.61733792  0.52893348    -0.13200
C494        C  0.72195421  0.63178866  0.49734660    -0.08800
C495        C  0.70558479  0.61389953  0.46716439     0.06800
C496        C  0.70841452  0.58232500  0.46826718    -0.13900
S497        S  0.76654752  0.56786913  0.57045627    -0.30800
H498        H  0.75265943  0.63096855  0.55189402     0.11000
S499        S  0.67951274  0.62971888  0.42806692    -0.27900
H500        H  0.69584874  0.56868031  0.44510189     0.08200
H501        H  0.78296427  0.44905538  0.45221745     0.26700
H502        H  0.77387135  0.59441042  0.59359400     0.21500
H503        H  0.66852168  0.65245113  0.45610268     0.26800
H504        H  0.68081093  0.55915409  0.55129922     0.15600
C505        C  0.73260354  0.52284112  0.96777705    -0.11700
C506        C  0.71744516  0.53693011  0.00236904     0.14900
C507        C  0.70436660  0.51903472  0.03550164     0.01800
C508        C  0.70759837  0.48751213  0.03404443    -0.16000
C509        C  0.72292951  0.47325197  0.99953426    -0.10800
C510        C  0.73576777  0.49132751  0.96616323     0.08500
C511        C  0.71663524  0.57036793  0.00359252     0.09500
S512        S  0.68309517  0.53501633  0.08015897    -0.25200
H513        H  0.69733307  0.47395410  0.05953228     0.19800
S514        S  0.75783410  0.47592655  0.92194980    -0.30900
H515        H  0.74280763  0.53661331  0.94246175     0.10100
C516        C  0.73487633  0.58696696  0.03277549     0.03300
C517        C  0.73356092  0.61871738  0.03242199    -0.13200
C518        C  0.71451469  0.63414317  0.00324771    -0.08800
C519        C  0.69578518  0.61731677  0.97469835     0.06800
C520        C  0.69744257  0.58568295  0.97468527    -0.13900
S521        S  0.76062445  0.56775519  0.06928195    -0.30800
H522        H  0.74797374  0.63162180  0.05414162     0.11000
S523        S  0.66830462  0.63469040  0.93906805    -0.27900
H524        H  0.68319199  0.57283053  0.95262963     0.08200
H525        H  0.77286083  0.45430493  0.94784719     0.26700
H526        H  0.77122843  0.59380321  0.09089844     0.21500
H527        H  0.65989685  0.65753525  0.96870719     0.26800
H528        H  0.67226522  0.56047040  0.05743121     0.15600
C529        C  0.51625694  0.70922964  0.46516988    -0.11700
C530        C  0.53124385  0.72599907  0.49737282     0.14900
C531        C  0.51419278  0.74092494  0.52982978     0.01800
C532        C  0.48264519  0.73777433  0.53030855    -0.16000
C533        C  0.46750337  0.72063968  0.49840034    -0.10800
C534        C  0.48471695  0.70609882  0.46554083     0.08500
C535        C  0.56471737  0.72601337  0.49751685     0.09500
S536        S  0.53129732  0.76428483  0.57139947    -0.25200
H537        H  0.46975651  0.74935745  0.55534497     0.19800
S538        S  0.46820536  0.68172670  0.42480225    -0.30900
H539        H  0.52937144  0.69758565  0.44042202     0.10100
C540        C  0.58122914  0.70886648  0.52811808     0.03300
C541        C  0.61298059  0.70957089  0.52716773    -0.13200
C542        C  0.62855844  0.72682289  0.49590931    -0.08800
C543        C  0.61182387  0.74413303  0.46542246     0.06800
C544        C  0.58014870  0.74318050  0.46619595    -0.13900
S545        S  0.56184711  0.68530301  0.56739648    -0.30800
H546        H  0.62576452  0.69614744  0.55029043     0.11000
S547        S  0.62935783  0.76900750  0.42619076    -0.27900
H548        H  0.56737461  0.75646449  0.44284010     0.08200
H549        H  0.44751672  0.66797179  0.45357366     0.26700
H550        H  0.58791363  0.67411684  0.58831517     0.21500
H551        H  0.65214146  0.77930139  0.45467898     0.26800
H552        H  0.55675952  0.77307793  0.54695931     0.15600
C553        C  0.50991504  0.73710174  0.03929306    -0.11700
C554        C  0.52539309  0.71899320  0.00911540     0.14900
C555        C  0.50880044  0.70051311  0.98010797     0.01800
C556        C  0.47713144  0.70128173  0.98104976    -0.16000
C557        C  0.46149827  0.71963131  0.01094223    -0.10800
C558        C  0.47823654  0.73793970  0.04020380     0.08500
C559        C  0.55877940  0.72089462  0.00761802     0.09500
S560        S  0.52659076  0.67560349  0.94107715    -0.25200
H561        H  0.46456586  0.68702643  0.95864882     0.19800
S562        S  0.46076474  0.76429746  0.07742837    -0.30900
H563        H  0.52266036  0.75149580  0.06130718     0.10100
C564        C  0.57382590  0.73643684  0.97387308     0.03300
C565        C  0.60557130  0.73743195  0.97360922    -0.13200
C566        C  0.62260900  0.72335925  0.00658241    -0.08800
C567        C  0.60729124  0.70749819  0.04013814     0.06800
C568        C  0.57561416  0.70690827  0.04064039    -0.13900
S569        S  0.55257602  0.75572042  0.93186487    -0.30800
H570        H  0.61718575  0.74964643  0.94797342     0.11000
S571        S  0.62660062  0.68613038  0.08182047    -0.27900
H572        H  0.56394897  0.69474329  0.06633357     0.08200
H573        H  0.43827853  0.77384942  0.04794669     0.26700
H574        H  0.57765239  0.76609794  0.90781542     0.21500
H575        H  0.64844092  0.67394266  0.05335406     0.26800
H576        H  0.55336644  0.67060964  0.96480536     0.15600
C577        C  0.52388122  0.35448515  0.47755836    -0.11700
C578        C  0.53879906  0.37485116  0.50527861     0.14900
C579        C  0.52171168  0.39279238  0.53441322     0.01800
C580        C  0.49019996  0.38943085  0.53587086    -0.16000
C581        C  0.47518296  0.36917957  0.50796159    -0.10800
C582        C  0.49235183  0.35129024  0.47876509     0.08500
C583        C  0.57223536  0.37614954  0.50380852     0.09500
S584        S  0.53860922  0.42059948  0.57008744    -0.25200
H585        H  0.47718288  0.40352196  0.55794613     0.19800
S586        S  0.47559694  0.32316437  0.44355037    -0.30900
H587        H  0.53699986  0.34053003  0.45542724     0.10100
C588        C  0.59009129  0.36259958  0.53644830     0.03300
C589        C  0.62175795  0.36441245  0.53371589    -0.13200
C590        C  0.63601192  0.37954338  0.49896387    -0.08800
C591        C  0.61782557  0.39361048  0.46672616     0.06800
C592        C  0.58625117  0.39126783  0.46912379    -0.24300
S593        S  0.57253863  0.34222218  0.58084399    -0.30800
H594        H  0.63549279  0.35341626  0.55830140     0.11000
S595        S  0.63320532  0.41613006  0.42298564    -0.27900
H596        H  0.57241086  0.40197828  0.44433620     0.08200
H597        H  0.45278479  0.31446871  0.47304869     0.26700
H598        H  0.59937096  0.33560420  0.60369622     0.21500
H599        H  0.65546523  0.43012463  0.44898080     0.26800
H600        H  0.56407766  0.42687959  0.54413893     0.15600
C601        C  0.36324976  0.57438798  0.47809335    -0.11700
C602        C  0.38208052  0.56064673  0.50912348     0.14900
C603        C  0.39854748  0.57892564  0.53853337     0.01800
C604        C  0.39551426  0.61046831  0.53655926    -0.16000
C605        C  0.37675193  0.62436250  0.50542298    -0.10800
C606        C  0.36012608  0.60593979  0.47620465     0.08500
C607        C  0.38308428  0.52719690  0.51091710     0.09500
S608        S  0.42345013  0.56357422  0.57967350    -0.25200
H609        H  0.40840250  0.62433876  0.55908122     0.19800
S610        S  0.33332423  0.62104771  0.43751262    -0.30900
H611        H  0.35026786  0.56033679  0.45591201     0.10100
C612        C  0.36460837  0.51077010  0.53995454     0.03300
C613        C  0.36583808  0.47898080  0.53991102    -0.13200
C614        C  0.38523466  0.46335438  0.51139500    -0.08800
C615        C  0.40456450  0.48003393  0.48355292     0.06800
C616        C  0.40283854  0.51169742  0.48298442    -0.13900
S617        S  0.33898462  0.53032346  0.57624294    -0.30800
H618        H  0.35111476  0.46620805  0.56135190     0.11000
S619        S  0.43290044  0.46236450  0.44967359    -0.27900
H620        H  0.41746027  0.52442628  0.46129866     0.08200
H621        H  0.32234093  0.64389554  0.46535647     0.26700
H622        H  0.32824741  0.50442715  0.59808956     0.21500
H623        H  0.43990516  0.43912260  0.47943807     0.26800
H624        H  0.43028454  0.53620317  0.55850721     0.15600
C625        C  0.52025317  0.35726404  0.98330838    -0.11700
C626        C  0.53538274  0.37258728  0.01683112     0.14900
C627        C  0.51849299  0.38594348  0.05084569     0.01800
C628        C  0.48688662  0.38341825  0.05074843    -0.16000
C629        C  0.47157937  0.36859605  0.01671015    -0.10800
C630        C  0.48867963  0.35483388  0.98304172     0.08500
C631        C  0.56876240  0.37442607  0.01485819     0.09500
S632        S  0.53577334  0.40718172  0.09453325    -0.25200
H633        H  0.47408837  0.39420012  0.07660383     0.19800
S634        S  0.47188135  0.33293491  0.93967945    -0.30900
H635        H  0.53323974  0.34677986  0.95737901     0.10100
C636        C  0.58737035  0.35709920  0.04261875     0.03300
C637        C  0.61896649  0.35950592  0.03893412    -0.13200
C638        C  0.63226702  0.37871877  0.00780456    -0.08800
C639        C  0.61341686  0.39646646  0.98065324     0.06800
C640        C  0.58195478  0.39375522  0.98402191    -0.13900
S641        S  0.57090580  0.33117445  0.08156013    -0.30800
H642        H  0.63339818  0.34583571  0.05963035     0.11000
S643        S  0.62795832  0.42401212  0.94261576    -0.27900
H644        H  0.56756123  0.40729170  0.96303024     0.08200
H645        H  0.44977232  0.31928936  0.96629202     0.26700
H646        H  0.59833433  0.32126731  0.10009807     0.21500
H647        H  0.65193171  0.43360990  0.96954734     0.26800
H648        H  0.56061731  0.41794330  0.07041568     0.15600
C649        C  0.35702566  0.57551295  0.98914061    -0.11700
C650        C  0.37603228  0.56214262  0.02026694     0.14900
C651        C  0.39164327  0.58073322  0.05026910     0.01800
C652        C  0.38755801  0.61218577  0.04882037    -0.16000
C653        C  0.36884693  0.62566664  0.01726091    -0.10800
C654        C  0.35298814  0.60693621  0.98760321     0.08500
C655        C  0.37827873  0.52870828  0.02114703     0.09500
S656        S  0.41745435  0.56582428  0.09053599    -0.25200
H657        H  0.39999102  0.62633199  0.07151261     0.19800
S658        S  0.32624340  0.62152333  0.94841599    -0.30900
H659        H  0.34471628  0.56124990  0.96645206     0.10100
C660        C  0.36390428  0.51143922  0.05374541     0.03300
C661        C  0.36572833  0.47971753  0.05227886    -0.13200
C662        C  0.38155727  0.46484778  0.01875691    -0.08800
C663        C  0.39681139  0.48241118  0.98696459     0.06800
C664        C  0.39452352  0.51403357  0.98808121    -0.13900
S665        S  0.34212384  0.52973334  0.09609754    -0.30800
H666        H  0.35398252  0.46640176  0.07662421     0.11000
S667        S  0.42059465  0.46610099  0.94533233    -0.27900
H668        H  0.40591192  0.52739240  0.96337432     0.08200
H669        H  0.31520216  0.64474752  0.97556332     0.26700
H670        H  0.33491650  0.50331329  0.11957484     0.21500
H671        H  0.43270538  0.44339156  0.97244788     0.26800
H672        H  0.42651344  0.54023977  0.06655323     0.15600
C673        C  0.69700315  0.89446815  0.79175532    -0.11700
C674        C  0.71737405  0.87522248  0.77021562     0.14900
C675        C  0.73755708  0.85725745  0.79481092     0.01800
C676        C  0.73712078  0.85914972  0.84030462    -0.16000
C677        C  0.71664177  0.87828365  0.86203376    -0.10800
C678        C  0.69662399  0.89645074  0.83726723     0.08500
C679        C  0.71828300  0.87581728  0.72210053     0.09500
S680        S  0.76441939  0.83159603  0.77018216    -0.25200
H681        H  0.75259037  0.84514029  0.85895598     0.19800
S682        S  0.67148533  0.92393244  0.86146320    -0.30900
H683        H  0.68189299  0.90870417  0.77285259     0.10100
C684        C  0.69628354  0.86074327  0.69691858     0.03300
C685        C  0.69801875  0.86203085  0.65131741    -0.13200
C686        C  0.72129809  0.87820115  0.63037503    -0.08800
C687        C  0.74280831  0.89401547  0.65596004     0.06800
C688        C  0.74131398  0.89226009  0.70141600    -0.13900
S689        S  0.66664123  0.83907364  0.72293783    -0.30800
H690        H  0.68151457  0.84991063  0.63186282     0.11000
S691        S  0.77167691  0.91808059  0.63288470    -0.27900
H692        H  0.75787749  0.90431294  0.72092195     0.08200
H693        H  0.69189046  0.93305402  0.89417437     0.26700
H694        H  0.65132132  0.83066376  0.68459605     0.21500
H695        H  0.75302064  0.92983631  0.59974492     0.26800
H696        H  0.74743324  0.82538644  0.73248809     0.15600
C697        C  0.70146416  0.86344198  0.20098902    -0.11700
C698        C  0.72454241  0.87961718  0.22208825     0.14900
C699        C  0.74656088  0.89491554  0.19704189     0.01800
C700        C  0.74475788  0.89405472  0.15154005    -0.16000
C701        C  0.72121779  0.87849809  0.13026290    -0.10800
C702        C  0.69977413  0.86236353  0.15551690     0.08500
C703        C  0.72522487  0.87956939  0.27023002     0.09500
S704        S  0.77725928  0.91613616  0.22109364    -0.25200
H705        H  0.76152414  0.90625440  0.13259566     0.19800
S706        S  0.67087435  0.83855320  0.13196703    -0.30900
H707        H  0.68494642  0.85109478  0.22020129     0.10100
C708        C  0.70372155  0.89602892  0.29449050     0.03300
C709        C  0.70458757  0.89488558  0.34008149    -0.13200
C710        C  0.72646159  0.87750280  0.36205653    -0.08800
C711        C  0.74771743  0.86059835  0.33746851     0.06800
C712        C  0.74711941  0.86217220  0.29191133    -0.13900
S713        S  0.67560123  0.91905530  0.26733641    -0.30800
H714        H  0.68832523  0.90787518  0.35877163     0.11000
S715        S  0.77487378  0.83522698  0.36190223    -0.27900
H716        H  0.76332907  0.84912382  0.27313372     0.08200
H717        H  0.68958456  0.82705242  0.09870527     0.26700
H718        H  0.66135942  0.93006207  0.30516415     0.21500
H719        H  0.75483180  0.82423257  0.39388741     0.26800
H720        H  0.76162257  0.92498510  0.25890867     0.15600
C721        C  0.75022661  0.08454871  0.52118729    -0.11700
C722        C  0.72823560  0.06845417  0.49770531     0.14900
C723        C  0.70527342  0.08452931  0.47548384     0.01800
C724        C  0.70495996  0.11622492  0.47692006    -0.16000
C725        C  0.72735498  0.13244123  0.49958157    -0.10800
C726        C  0.74987357  0.11624016  0.52278596     0.08500
C727        C  0.72886273  0.03492539  0.49888998     0.09500
S728        S  0.67602662  0.06598102  0.44421856    -0.25200
H729        H  0.68755184  0.12834309  0.45908560     0.19800
S730        S  0.77773482  0.13443565  0.55693142    -0.30900
H731        H  0.76741623  0.07224619  0.53920690     0.10100
C732        C  0.75148348  0.01822344  0.47709424     0.03300
C733        C  0.75051038  0.98641994  0.47801611    -0.13200
C734        C  0.72750685  0.97098162  0.50063580    -0.08800
C735        C  0.70579801  0.98794559  0.52425433     0.06800
C736        C  0.70641652  0.01960980  0.52249035    -0.13900
S737        S  0.78089372  0.03739401  0.44678827    -0.30800
H738        H  0.76731343  0.97351348  0.46022030     0.11000
S739        S  0.67773816  0.97072178  0.55905006    -0.27900
H740        H  0.68951665  0.03249693  0.54020895     0.08200
H741        H  0.75783352  0.15681106  0.57277175     0.26700
H742        H  0.79667079  0.01122737  0.43368667     0.21500
H743        H  0.69707305  0.94773854  0.57451798     0.26800
H744        H  0.69352653  0.04082107  0.43168303     0.15600
C745        C  0.70383095  0.24345259  0.78867610    -0.11700
C746        C  0.72673323  0.22753603  0.76685150     0.14900
C747        C  0.74963965  0.21296150  0.79113330     0.01800
C748        C  0.74902851  0.21446948  0.83665541    -0.16000
C749        C  0.72580210  0.22995665  0.85871627    -0.10800
C750        C  0.70329652  0.24516016  0.83415175     0.08500
C751        C  0.72671023  0.22762430  0.71872490     0.09500
S752        S  0.77998616  0.19183930  0.76601999    -0.25200
H753        H  0.76645127  0.20276491  0.85501634     0.19800
S754        S  0.67435426  0.26852927  0.85848024    -0.30900
H755        H  0.68660189  0.25521727  0.77000092     0.10100
C756        C  0.70525302  0.21077833  0.69490807     0.03300
C757        C  0.70576720  0.21180703  0.64928037    -0.13200
C758        C  0.72738931  0.22927300  0.62694253    -0.08800
C759        C  0.74850052  0.24662736  0.65108045     0.06800
C760        C  0.74813545  0.24532747  0.69662231    -0.13900
S761        S  0.67787848  0.18720265  0.72263680    -0.30800
H762        H  0.68962837  0.19847786  0.63085411     0.11000
S763        S  0.77539117  0.27198792  0.62601110    -0.27900
H764        H  0.76430084  0.25865659  0.71507098     0.08200
H765        H  0.69360466  0.28105742  0.89032851     0.26700
H766        H  0.66435649  0.17491060  0.68507189     0.21500
H767        H  0.75560174  0.28173884  0.59289270     0.26800
H768        H  0.76345880  0.18228745  0.72934192     0.15600
C769        C  0.70379739  0.24188681  0.19736280    -0.11700
C770        C  0.72550067  0.22407567  0.21873841     0.14900
C771        C  0.74651605  0.20720162  0.19395017     0.01800
C772        C  0.74587520  0.20914620  0.14850185    -0.16000
C773        C  0.72417762  0.22694882  0.12691723    -0.10800
C774        C  0.70309222  0.24379749  0.15185526     0.08500
C775        C  0.72602590  0.22411461  0.26688617     0.09500
S776        S  0.77450088  0.18258857  0.21819777    -0.25200
H777        H  0.76203873  0.19601028  0.12976790     0.19800
S778        S  0.67590914  0.26940585  0.12795296    -0.30900
H779        H  0.68780350  0.25504056  0.21637412     0.10100
C780        C  0.74896913  0.23917008  0.29036490     0.03300
C781        C  0.74885749  0.23797732  0.33603048    -0.13200
C782        C  0.72609819  0.22225646  0.35877218    -0.08800
C783        C  0.70323916  0.20701889  0.33488055     0.06800
C784        C  0.70323963  0.20850618  0.28936106    -0.13900
S785        S  0.77779251  0.26070146  0.26220994    -0.30800
H786        H  0.76619738  0.24991676  0.35415973     0.11000
S787        S  0.67433082  0.18407686  0.36012148    -0.27900
H788        H  0.68576709  0.19673539  0.27118676     0.08200
H789        H  0.69571396  0.28031466  0.09560995     0.26700
H790        H  0.79395513  0.26988673  0.29945189     0.21500
H791        H  0.69373354  0.17165317  0.39184339     0.26800
H792        H  0.75772184  0.17527663  0.25566614     0.15600
C793        C  0.74169330  0.02054006  0.96761215    -0.11700
C794        C  0.72015781  0.03672671  0.99181955     0.14900
C795        C  0.69764650  0.02075731  0.01507964     0.01800
C796        C  0.69749037  0.98903764  0.01417065    -0.16000
C797        C  0.71954652  0.97271307  0.99091270    -0.10800
C798        C  0.74142333  0.98884186  0.96642038     0.08500
C799        C  0.72138570  0.07023374  0.99116606     0.09500
S800        S  0.66878423  0.03942960  0.04693167    -0.25200
H801        H  0.68042907  0.97699209  0.03277492     0.19800
S802        S  0.76850171  0.97055236  0.93114302    -0.30900
H803        H  0.75853879  0.03278390  0.94885413     0.10100
C804        C  0.74438170  0.08615134  0.01331567     0.03300
C805        C  0.74487019  0.11792410  0.01171773    -0.13200
C806        C  0.72273707  0.13417143  0.98851423    -0.08800
C807        C  0.70014465  0.11797900  0.96540260     0.06800
C808        C  0.69951655  0.08629212  0.96744959    -0.13900
S809        S  0.77241856  0.06599546  0.04496718    -0.30800
H810        H  0.76216068  0.13021378  0.02946173     0.11000
S811        S  0.67241713  0.13616085  0.93104544    -0.27900
H812        H  0.68215725  0.07397726  0.94980246     0.08200
H813        H  0.74822564  0.94821275  0.91622120     0.26700
H814        H  0.78817887  0.09165105  0.06005231     0.21500
H815        H  0.69252709  0.15818994  0.91476032     0.26800
H816        H  0.68614374  0.06496763  0.05820467     0.15600
C817        C  0.19949139  0.74070139  0.80164447    -0.11700
C818        C  0.21683940  0.71873680  0.78004068     0.14900
C819        C  0.23286558  0.69693096  0.80458325     0.01800
C820        C  0.23110212  0.69751041  0.85006758    -0.16000
C821        C  0.21409145  0.71971247  0.87191071    -0.10800
C822        C  0.19758021  0.74118681  0.84717819     0.08500
C823        C  0.21747652  0.71891853  0.73191070     0.09500
S824        S  0.25597840  0.66782086  0.78000040    -0.25200
H825        H  0.24380235  0.68090140  0.86862026     0.19800
S826        S  0.17244363  0.76865742  0.87142943    -0.30900
H827        H  0.18681341  0.75717110  0.78279981     0.10100
C828        C  0.20035008  0.69812368  0.70727011     0.03300
C829        C  0.20254011  0.69849706  0.66167868    -0.13200
C830        C  0.22141302  0.71936931  0.64022605    -0.08800
C831        C  0.23886617  0.73990968  0.66525138     0.06800
C832        C  0.23630833  0.73977245  0.71067262    -0.13900
S833        S  0.17527020  0.67158697  0.73389474    -0.30800
H834        H  0.18908470  0.68283876  0.64258868     0.11000
S835        S  0.26603989  0.76562707  0.64156892    -0.27900
H836        H  0.24980802  0.75543957  0.72976613     0.08200
H837        H  0.16178804  0.74912637  0.90430030     0.26700
H838        H  0.16570890  0.65641433  0.69598479     0.21500
H839        H  0.27584092  0.74534959  0.60908827     0.26800
H840        H  0.26390374  0.68407313  0.74233223     0.15600
C841        C  0.23833695  0.70025681  0.30174808    -0.11700
C842        C  0.22161425  0.72271031  0.28015540     0.14900
C843        C  0.20558268  0.74450656  0.30472098     0.01800
C844        C  0.20705581  0.74365475  0.35021676    -0.16000
C845        C  0.22353321  0.72101502  0.37199007    -0.10800
C846        C  0.23976663  0.69935278  0.34727181     0.08500
C847        C  0.22094483  0.72242507  0.23204055     0.09500
S848        S  0.18245091  0.77361679  0.28016136    -0.25200
H849        H  0.19445199  0.76030977  0.36882231     0.19800
S850        S  0.26381693  0.67095095  0.37158990    -0.30900
H851        H  0.25079315  0.68361724  0.28290741     0.10100
C852        C  0.23650531  0.74424982  0.20706785     0.03300
C853        C  0.23419653  0.74344952  0.16148361    -0.13200
C854        C  0.21672375  0.72119063  0.14038239    -0.08800
C855        C  0.20095577  0.69958895  0.16580943     0.06800
C856        C  0.20366898  0.70012684  0.21114767    -0.13900
S857        S  0.25981311  0.77262417  0.23317032    -0.30800
H858        H  0.24644520  0.75991749  0.14214039     0.11000
S859        S  0.17529642  0.67223412  0.14272774    -0.27900
H860        H  0.19137561  0.68363849  0.23047106     0.08200
H861        H  0.27478129  0.68990777  0.40493947     0.26700
H862        H  0.26924396  0.78742645  0.19489487     0.21500
H863        H  0.16270751  0.69319119  0.11331747     0.26800
H864        H  0.17433537  0.75715360  0.24273834     0.15600
C865        C  0.01705605  0.75521194  0.50350954    -0.11700
C866        C  0.03171914  0.72802661  0.49291438     0.14900
C867        C  0.01424671  0.70243301  0.48183872     0.01800
C868        C  0.98264289  0.70423844  0.48313944    -0.16000
C869        C  0.96759605  0.73132998  0.49429131    -0.10800
C870        C  0.98540300  0.75730323  0.50413700     0.08500
C871        C  0.06518879  0.72673276  0.49568722     0.09500
S872        S  0.03088630  0.66693117  0.46512354    -0.25200
H873        H  0.96973297  0.68421298  0.47456282     0.19800
S874        S  0.96987764  0.79378844  0.51816463    -0.30900
H875        H  0.03048282  0.77491663  0.51207062     0.10100
C876        C  0.08367515  0.74342261  0.46693535     0.03300
C877        C  0.11526635  0.74209608  0.47149790    -0.13200
C878        C  0.12874766  0.72407400  0.50381526    -0.08800
C879        C  0.11016246  0.70750625  0.53275232     0.06800
C880        C  0.07863386  0.70890620  0.52825113    -0.13900
S881        S  0.06709641  0.76533206  0.42327404    -0.30800
H882        H  0.12961569  0.75455192  0.44916211     0.11000
S883        S  0.12520789  0.68521507  0.57701511    -0.27900
H884        H  0.06440692  0.69635864  0.55068917     0.08200
H885        H  0.95041620  0.78217310  0.55008144     0.26700
H886        H  0.09447036  0.77595960  0.40543036     0.21500
H887        H  0.14988090  0.70449419  0.58563773     0.26800
H888        H  0.05686006  0.67958941  0.44579441     0.15600
C889        C  0.85104115  0.74541851  0.78956654    -0.11700
C890        C  0.86814932  0.72296295  0.76863939     0.14900
C891        C  0.88398722  0.70138110  0.79381728     0.01800
C892        C  0.88210417  0.70255284  0.83927418    -0.16000
C893        C  0.86541366  0.72533732  0.86042356    -0.10800
C894        C  0.84917847  0.74664668  0.83503061     0.08500
C895        C  0.86946610  0.72313187  0.72055627     0.09500
S896        S  0.90748884  0.67226024  0.77006793    -0.25200
H897        H  0.89467615  0.68612511  0.85832728     0.19800
S898        S  0.82462619  0.77503216  0.85831720    -0.30900
H899        H  0.83867805  0.76185827  0.77023533     0.10100
C900        C  0.85388446  0.70154851  0.69517394     0.03300
C901        C  0.85625738  0.70268354  0.64957483    -0.13200
C902        C  0.87384014  0.72505909  0.62895158    -0.08800
C903        C  0.88986369  0.74618776  0.65482130     0.06800
C904        C  0.88709198  0.74533551  0.70011697    -0.13900
S905        S  0.83028818  0.67323196  0.72079085    -0.30800
H906        H  0.84384831  0.68654765  0.62987270     0.11000
S907        S  0.91589515  0.77331348  0.63221990    -0.27900
H908        H  0.89947252  0.76158502  0.71974003     0.08200
H909        H  0.81355965  0.75620689  0.89174482     0.26700
H910        H  0.82204732  0.65787482  0.68240034     0.21500
H911        H  0.92825818  0.75215423  0.60288069     0.26800
H912        H  0.91638894  0.68889665  0.73317828     0.15600
C913        C  0.85266911  0.71185269  0.19954261    -0.11700
C914        C  0.87011872  0.73406099  0.22046590     0.14900
C915        C  0.88633812  0.75533349  0.19519865     0.01800
C916        C  0.88428109  0.75425427  0.14972851    -0.16000
C917        C  0.86715264  0.73177473  0.12863593    -0.10800
C918        C  0.85072738  0.71065486  0.15407603     0.08500
C919        C  0.87109488  0.73413346  0.26863276     0.09500
S920        S  0.91050591  0.78395689  0.21882870    -0.25200
H921        H  0.89696385  0.77056466  0.13062155     0.19800
S922        S  0.82575864  0.68262472  0.13078372    -0.30900
H923        H  0.84002751  0.69563355  0.21888868     0.10100
C924        C  0.85600370  0.75634868  0.29350190     0.03300
C925        C  0.85780521  0.75529348  0.33916798    -0.13200
C926        C  0.87432356  0.73238264  0.36046366    -0.08800
C927        C  0.88992074  0.71056698  0.33510040     0.06800
C928        C  0.88764965  0.71137982  0.28970209    -0.13900
S929        S  0.83366794  0.78537172  0.26713099    -0.30800
H930        H  0.84573369  0.77196085  0.35838900     0.11000
S931        S  0.91438255  0.68206302  0.35827152    -0.27900
H932        H  0.89955155  0.69455140  0.27047551     0.08200
H933        H  0.81482910  0.70162331  0.09746653     0.26700
H934        H  0.82512844  0.80086894  0.30524427     0.21500
H935        H  0.92687933  0.70142890  0.39000914     0.26800
H936        H  0.91866127  0.76740668  0.25615266     0.15600
C937        C  0.00877023  0.74634896  0.02471603    -0.11700
C938        C  0.02458017  0.72824457  0.99474796     0.14900
C939        C  0.00807576  0.71062424  0.96442771     0.01800
C940        C  0.97637947  0.71087241  0.96557632    -0.16000
C941        C  0.96064531  0.72918341  0.99529358    -0.10800
C942        C  0.97709780  0.74712688  0.02518790     0.08500
C943        C  0.05808992  0.72668633  0.99786214     0.09500
S944        S  0.02604217  0.68790386  0.92292663    -0.25200
H945        H  0.96385897  0.69723637  0.94233085     0.19800
S946        S  0.95905481  0.77021912  0.06614586    -0.30900
H947        H  0.02123612  0.75945795  0.04862822     0.10100
C948        C  0.07640375  0.75253101  0.99213207     0.03300
C949        C  0.10793789  0.74990976  0.99613111    -0.13200
C950        C  0.12193687  0.72190252  0.00527929    -0.08800
C951        C  0.10321013  0.69601258  0.01119120     0.06800
C952        C  0.07173583  0.69880905  0.00752453    -0.13900
S953        S  0.05984068  0.78864504  0.97767606    -0.30800
H954        H  0.12178593  0.76984268  0.99107442     0.11000
S955        S  0.11736517  0.65868239  0.02351232    -0.27900
H956        H  0.05761885  0.67898866  0.01247718     0.08200
H957        H  0.93553848  0.74955110  0.07472690     0.26700
H958        H  0.08706629  0.80513325  0.97505873     0.21500
H959        H  0.13541348  0.66870244  0.05826746     0.26800
H960        H  0.05164182  0.70658219  0.91795643     0.15600
C961        C  0.39960717  0.22984990  0.71131645    -0.11700
C962        C  0.37544927  0.21644297  0.73381397     0.14900
C963        C  0.35068479  0.20467997  0.71005260     0.01800
C964        C  0.35070960  0.20652469  0.66449238    -0.16000
C965        C  0.37517859  0.21945733  0.64178348    -0.10800
C966        C  0.39967027  0.23175759  0.66586525     0.08500
C967        C  0.37602415  0.21695326  0.78205910     0.09500
S968        S  0.31872175  0.18654391  0.73582853    -0.25200
H969        H  0.33179827  0.19698109  0.64659712     0.19800
S970        S  0.43090506  0.25169932  0.64109432    -0.30900
H971        H  0.41828182  0.23962290  0.72949773     0.10100
C972        C  0.39799945  0.20071276  0.80589089     0.03300
C973        C  0.39850835  0.20301069  0.85145910    -0.13200
C974        C  0.37736857  0.22105358  0.87377949    -0.08800
C975        C  0.35563407  0.23760586  0.84967280     0.06800
C976        C  0.35506780  0.23518551  0.80424212    -0.13900
S977        S  0.42465530  0.17616443  0.77844086    -0.30800
H978        H  0.41498300  0.19012049  0.86991187     0.11000
S979        S  0.32898532  0.26327225  0.87459500    -0.27900
H980        H  0.33855705  0.24814156  0.78587967     0.08200
H981        H  0.41275689  0.26713659  0.61058579     0.26700
H982        H  0.44006790  0.16621154  0.81592880     0.21500
H983        H  0.34927107  0.27396115  0.90648205     0.26800
H984        H  0.33479990  0.17519849  0.77186544     0.15600
C985        C  0.40278005  0.22620730  0.21285479    -0.11700
C986        C  0.37931397  0.21046724  0.23368309     0.14900
C987        C  0.35639721  0.19674548  0.20847513     0.01800
C988        C  0.35706699  0.19960502  0.16311130    -0.16000
C989        C  0.38044572  0.21552499  0.14199225    -0.10800
C990        C  0.40348181  0.22916729  0.16749573     0.08500
C991        C  0.37798890  0.21112599  0.28176366     0.09500
S992        S  0.32584997  0.17522475  0.23230422    -0.25200
H993        H  0.33938790  0.18881865  0.14409931     0.19800
S994        S  0.43320737  0.25232718  0.14478872    -0.30900
H995        H  0.42010508  0.23722645  0.23228367     0.10100
C996        C  0.39860332  0.19457064  0.30742755     0.03300
C997        C  0.39731732  0.19709508  0.35292731    -0.13200
C998        C  0.37588712  0.21595496  0.37329440    -0.08800
C999        C  0.35553249  0.23283595  0.34724181     0.06800
C1000       C  0.35653699  0.22988986  0.30190592    -0.13900
S1001       S  0.42599048  0.16968811  0.28222850    -0.30800
H1002       H  0.41282141  0.18402201  0.37279694     0.11000
S1003       S  0.32909688  0.25987812  0.36945061    -0.27900
H1004       H  0.34106803  0.24304067  0.28201177     0.08200
H1005       H  0.41412367  0.26728964  0.11498367     0.26700
H1006       H  0.43981159  0.15969707  0.32095833     0.21500
H1007       H  0.34904862  0.27086228  0.40156971     0.26800
H1008       H  0.34237754  0.16473466  0.26846197     0.15600
C1009       C  0.34674972  0.07675639  0.48402812    -0.11700
C1010       C  0.36869179  0.06040566  0.50722258     0.14900
C1011       C  0.39126504  0.07618458  0.53057301     0.01800
C1012       C  0.39171645  0.10788351  0.52964561    -0.16000
C1013       C  0.36980411  0.12440973  0.50642154    -0.10800
C1014       C  0.34719801  0.10847492  0.48298551     0.08500
C1015       C  0.36844159  0.02695051  0.50443045     0.09500
S1016       S  0.42006349  0.05720199  0.56213921    -0.25200
H1017       H  0.40910636  0.11976995  0.54784029     0.19800
S1018       S  0.31954869  0.12699580  0.44889432    -0.30900
H1019       H  0.32967245  0.06463842  0.46552650     0.10100
C1020       C  0.34712533  0.00953240  0.52762923     0.03300
C1021       C  0.34775352  0.97784215  0.52404759    -0.13200
C1022       C  0.36929569  0.96320824  0.49769937    -0.08800
C1023       C  0.39015840  0.98088359  0.47361687     0.06800
C1024       C  0.38972770  0.01247729  0.47767194    -0.13900
S1025       S  0.31989657  0.02765979  0.56301092    -0.30800
H1026       H  0.33186476  0.96433390  0.54265322     0.11000
S1027       S  0.41690157  0.96470013  0.43575618    -0.27900
H1028       H  0.40579542  0.02597117  0.45929607     0.08200
H1029       H  0.34000150  0.14847187  0.43198426     0.26700
H1030       H  0.30536866  0.00102387  0.57711038     0.21500
H1031       H  0.39741712  0.94155933  0.42117712     0.26800
H1032       H  0.40252388  0.03172085  0.57311154     0.15600
C1033       C  0.34926753  0.88754082  0.79607849    -0.11700
C1034       C  0.36826510  0.86753722  0.77347820     0.14900
C1035       C  0.38869764  0.84910928  0.79692883     0.01800
C1036       C  0.38997946  0.85138780  0.84237577    -0.16000
C1037       C  0.37082933  0.87126779  0.86515053    -0.10800
C1038       C  0.35048257  0.88981054  0.84149510     0.08500
C1039       C  0.36805516  0.86837889  0.72536426     0.09500
S1040       S  0.41352349  0.82219004  0.77078553    -0.25200
H1041       H  0.40552169  0.83694472  0.86019073     0.19800
S1042       S  0.32676678  0.91801435  0.86693411    -0.30900
H1043       H  0.33400999  0.90215035  0.77802614     0.10100
C1044       C  0.34475948  0.85469111  0.70094408     0.03300
C1045       C  0.34557816  0.85634603  0.65528907    -0.13200
C1046       C  0.36899263  0.87188267  0.63359771    -0.08800
C1047       C  0.39151539  0.88674387  0.65857288     0.06800
C1048       C  0.39114110  0.88426076  0.70396967    -0.13900
S1049       S  0.31451477  0.83445290  0.72791943    -0.30800
H1050       H  0.32821928  0.84501760  0.63639936     0.11000
S1051       S  0.42021479  0.91074278  0.63493654    -0.27900
H1052       H  0.40855297  0.89550259  0.72294412     0.08200
H1053       H  0.34822323  0.92649984  0.89859428     0.26700
H1054       H  0.29771093  0.82765217  0.69020317     0.21500
H1055       H  0.40082010  0.92350069  0.60345493     0.26800
H1056       H  0.39456446  0.81612059  0.73502064     0.15600
C1057       C  0.35238586  0.85115738  0.20182173    -0.11700
C1058       C  0.37356005  0.86849760  0.22501388     0.14900
C1059       C  0.39576645  0.88508776  0.20197689     0.01800
C1060       C  0.39613367  0.88417958  0.15639984    -0.16000
C1061       C  0.37433261  0.86761973  0.13311033    -0.10800
C1062       C  0.35261764  0.85036693  0.15630559     0.08500
C1063       C  0.37259401  0.86788538  0.27318934     0.09500
S1064       S  0.42367823  0.90845523  0.22875129    -0.25200
H1065       H  0.41291997  0.89739424  0.13895487     0.19800
S1066       S  0.32553437  0.82577861  0.13002333    -0.30900
H1067       H  0.33579728  0.83778092  0.21942363     0.10100
C1068       C  0.34826532  0.88076661  0.29646782     0.03300
C1069       C  0.34856384  0.88008636  0.34212775    -0.13200
C1070       C  0.37254278  0.86651762  0.36513449    -0.08800
C1071       C  0.39624233  0.85245473  0.34145033     0.06800
C1072       C  0.39621874  0.85373329  0.29591923    -0.13900
S1073       S  0.31738839  0.89910399  0.26814104    -0.30800
H1074       H  0.33031437  0.89076568  0.36002391     0.11000
S1075       S  0.42626549  0.83114823  0.36693731    -0.27900
H1076       H  0.41450615  0.84312211  0.27792926     0.08200
H1077       H  0.34554079  0.81607994  0.09717011     0.26700
H1078       H  0.29981241  0.90573299  0.30517324     0.21500
H1079       H  0.40732648  0.81750074  0.39820547     0.26800
H1080       H  0.40529054  0.91671941  0.26423289     0.15600
C1081       C  0.35975901  0.07769435  0.97581641    -0.11700
C1082       C  0.38017478  0.06166115  0.00213625     0.14900
C1083       C  0.40137335  0.07776816  0.02765725     0.01800
C1084       C  0.40152507  0.10950999  0.02653502    -0.16000
C1085       C  0.38056520  0.12564223  0.00106090    -0.10800
C1086       C  0.35990799  0.10939507  0.97464172     0.08500
C1087       C  0.37906754  0.02815798  0.00152786     0.09500
S1088       S  0.42847024  0.05920889  0.06267306    -0.25200
H1089       H  0.41752269  0.12172852  0.04679943     0.19800
S1090       S  0.33418031  0.12765272  0.93726518    -0.30900
H1091       H  0.34384534  0.06534454  0.95556891     0.10100
C1092       C  0.35653857  0.01220785  0.02453888     0.03300
C1093       C  0.35591328  0.98044841  0.02264161    -0.13200
C1094       C  0.37729697  0.96423658  0.99796204    -0.08800
C1095       C  0.39943768  0.98047998  0.97404343     0.06800
C1096       C  0.40033538  0.01216395  0.97662733    -0.13900
S1097       S  0.32911340  0.03234486  0.05727692    -0.30800
H1098       H  0.33898648  0.96813897  0.04106058     0.11000
S1099       S  0.42605242  0.96241253  0.93781345    -0.27900
H1100       H  0.41730138  0.02453281  0.95829269     0.08200
H1101       H  0.35440597  0.15089194  0.92534821     0.26700
H1102       H  0.31229238  0.00682145  0.07031482     0.21500
H1103       H  0.40529654  0.94081495  0.92202315     0.26800
H1104       H  0.41061201  0.03367633  0.07218818     0.15600
loop_ 
_geom_bond_atom_site_label_1 
_geom_bond_atom_site_label_2 
_geom_bond_distance 
_geom_bond_site_symmetry_2 
_ccdc_geom_bond_type 
O1           Cu9   2.013       .  S
O1           C11   1.279       .  A
O2           Cu9   2.013   1_554  S
O2           C12   1.279       .  A
O3           Cu9   2.005       .  S
O3           C13   1.276   1_556  A
O4           Cu9   2.010       .  S
O4           C14   1.278       .  A
O5          Cu10   2.010   1_554  S
O5           C14   1.278   1_554  A
O6          Cu10   2.008       .  S
O6           C13   1.276   1_556  A
O7          Cu10   1.998   1_554  S
O7           C12   1.276       .  A
O8          Cu10   2.001       .  S
O8           C11   1.277       .  A
Cu9         Cu10   2.375       .  S
C11        C1037   1.477       .  S
C12        C1061   1.476       .  S
C13         C207   1.456       .  S
C14        C1094   1.481       .  S
O15         Cu23   2.007       .  S
O15          C25   1.278       .  A
O16         Cu23   2.006       .  S
O16          C26   1.277       .  A
O17         Cu23   2.007       .  S
O17          C27   1.277       .  A
O18         Cu23   2.004       .  S
O18          C28   1.276       .  A
O19         Cu24   2.006       .  S
O19          C28   1.276       .  A
O20         Cu24   2.009       .  S
O20          C27   1.278       .  A
O21         Cu24   2.006       .  S
O21          C26   1.278       .  A
O22         Cu24   2.007       .  S
O22          C25   1.278       .  A
Cu23        Cu24   2.374       .  S
C25        C1046   1.481       .  S
C26        C1070   1.481       .  S
C27        C1022   1.478       .  S
C28         C223   1.455       .  S
O29         Cu37   2.009       .  S
O29          C39   1.276       .  A
O30         Cu37   2.008       .  S
O30          C40   1.278       .  A
O31         Cu37   2.006       .  S
O31          C41   1.278       .  A
O32         Cu37   2.004   1_556  S
O32          C42   1.277       .  A
O33         Cu38   2.007   1_556  S
O33          C42   1.278       .  A
O34         Cu38   2.007       .  S
O34          C41   1.277       .  A
O35         Cu38   2.010       .  S
O35          C40   1.278       .  A
O36         Cu38   2.013       .  S
O36          C39   1.277       .  A
Cu37        Cu38   2.374       .  S
C39         C180   1.460       .  S
C40        C1085   1.478       .  S
C41         C989   1.481       .  S
C42         C974   1.477       .  S
O43         Cu51   2.009       .  S
O43          C53   1.278       .  A
O44         Cu51   2.008       .  S
O44          C54   1.276       .  A
O45         Cu51   2.011       .  S
O45          C55   1.278       .  A
O46         Cu51   2.015       .  S
O46          C56   1.279       .  A
O47         Cu52   2.001       .  S
O47          C56   1.277       .  A
O48         Cu52   2.001       .  S
O48          C55   1.277       .  A
O49         Cu52   2.011       .  S
O49          C54   1.277       .  A
O50         Cu52   2.006       .  S
O50          C53   1.278       .  A
Cu51        Cu52   2.374       .  S
C53        C1013   1.480       .  S
C54         C196   1.459       .  S
C55         C998   1.478       .  S
C56         C965   1.483       .  S
O57         Cu65   2.007       .  S
O57          C67   1.277       .  A
O58         Cu65   2.004       .  S
O58          C68   1.276       .  A
O59         Cu65   2.007   1_554  S
O59          C69   1.278       .  A
O60         Cu65   2.009       .  S
O60          C70   1.278       .  A
O61         Cu66   2.005       .  S
O61          C70   1.278       .  A
O62         Cu66   2.009   1_554  S
O62          C69   1.278       .  A
O63         Cu66   2.001       .  S
O63          C68   1.275       .  A
O64         Cu66   2.005       .  S
O64          C67   1.277       .  A
Cu65        Cu66   2.376       .  S
C67         C941   1.472       .  S
C68         C265   1.453       .  S
C69         C917   1.478       .  S
C70         C893   1.479       .  S
O71         Cu79   2.008       .  S
O71          C81   1.277       .  A
O72         Cu79   2.011       .  S
O72          C82   1.277       .  A
O73         Cu79   2.011       .  S
O73          C83   1.278       .  A
O74         Cu79   2.011       .  S
O74          C84   1.278       .  A
O75         Cu80   2.008       .  S
O75          C84   1.277       .  A
O76         Cu80   2.005       .  S
O76          C83   1.278       .  A
O77         Cu80   2.005       .  S
O77          C82   1.279       .  A
O78         Cu80   2.002       .  S
O78          C81   1.275       .  A
Cu79        Cu80   2.371       .  S
C81         C278   1.455       .  S
C82         C869   1.491       .  S
C83         C926   1.482       .  S
C84         C902   1.480       .  S
O85         Cu93   2.007       .  S
O85          C95   1.279       .  A
O86         Cu93   2.009       .  S
O86          C96   1.277       .  A
O87         Cu93   2.009   1_556  S
O87          C97   1.278       .  A
O88         Cu93   2.005       .  S
O88          C98   1.277       .  A
O89         Cu94   2.010       .  S
O89          C98   1.278       .  A
O90         Cu94   2.006   1_556  S
O90          C97   1.278       .  A
O91         Cu94   2.009       .  S
O91          C96   1.276       .  A
O92         Cu94   2.009       .  S
O92          C95   1.276       .  A
Cu93        Cu94   2.371       .  S
C95         C950   1.492       .  S
C96         C209   1.459       .  S
C97         C821   1.479       .  S
C98         C854   1.480       .  S
O99        Cu107   2.003       .  S
O99         C109   1.277       .  A
O100       Cu107   2.007       .  S
O100        C110   1.278       .  A
O101       Cu107   2.005       .  S
O101        C111   1.276       .  A
O102       Cu107   2.005       .  S
O102        C112   1.277       .  A
O103       Cu108   2.012       .  S
O103        C112   1.278       .  A
O104       Cu108   2.012       .  S
O104        C111   1.277       .  A
O105       Cu108   2.008       .  S
O105        C110   1.278       .  A
O106       Cu108   2.011       .  S
O106        C109   1.278       .  A
Cu107      Cu108   2.376       .  S
C109        C845   1.477       .  S
C110        C830   1.478       .  S
C111        C221   1.458       .  S
C112        C878   1.473       .  S
O113       Cu121   2.006       .  S
O113        C123   1.278       .  A
O114       Cu121   2.003   1_554  S
O114        C124   1.278       .  A
O115       Cu121   2.011       .  S
O115        C125   1.279       .  A
O116       Cu121   2.012       .  S
O116        C126   1.277       .  A
O117       Cu122   2.004       .  S
O117        C126   1.276       .  A
O118       Cu122   2.006       .  S
O118        C125   1.277       .  A
O119       Cu122   2.008   1_554  S
O119        C124   1.278       .  A
O120       Cu122   2.004       .  S
O120        C123   1.277       .  A
Cu121      Cu122   2.374       .  S
C123        C749   1.479       .  S
C124        C773   1.478       .  S
C125        C806   1.480       .  S
C126        C237   1.457       .  S
O127       Cu135   2.009       .  S
O127        C137   1.278       .  A
O128       Cu135   2.011       .  S
O128        C138   1.279       .  A
O129       Cu135   1.997       .  S
O129        C139   1.275       .  A
O130       Cu135   2.001       .  S
O130        C140   1.277       .  A
O131       Cu136   2.010       .  S
O131        C140   1.278       .  A
O132       Cu136   2.009       .  S
O132        C139   1.277       .  A
O133       Cu136   2.003       .  S
O133        C138   1.277       .  A
O134       Cu136   2.003       .  S
O134        C137   1.277       .  A
Cu135      Cu136   2.375       .  S
C137        C758   1.477       .  S
C138        C782   1.480       .  S
C139        C250   1.454       .  S
C140        C725   1.479       .  S
O141       Cu149   2.004       .  S
O141        C151   1.277       .  A
O142       Cu149   2.003       .  S
O142        C152   1.275       .  A
O143       Cu149   2.013   1_554  S
O143        C153   1.279       .  A
O144       Cu149   2.014       .  S
O144        C154   1.279       .  A
O145       Cu150   2.001       .  S
O145        C154   1.277       .  A
O146       Cu150   2.001   1_554  S
O146        C153   1.277       .  A
O147       Cu150   2.007       .  S
O147        C152   1.277       .  A
O148       Cu150   2.011       .  S
O148        C151   1.278       .  A
Cu149      Cu150   2.375       .  S
C151        C797   1.480       .  S
C152        C263   1.455       .  S
C153        C701   1.479       .  S
C154        C677   1.477       .  S
O155       Cu163   2.009       .  S
O155        C165   1.278       .  A
O156       Cu163   2.010       .  S
O156        C166   1.277       .  A
O157       Cu163   2.003       .  S
O157        C167   1.277       .  A
O158       Cu163   2.002       .  S
O158        C168   1.278       .  A
O159       Cu164   2.012       .  S
O159        C168   1.278       .  A
O160       Cu164   2.011       .  S
O160        C167   1.278       .  A
O161       Cu164   2.007       .  S
O161        C166   1.276       .  A
O162       Cu164   2.008       .  S
O162        C165   1.278       .  A
Cu163      Cu164   2.374       .  S
C165        C734   1.480       .  S
C166        C280   1.458       .  S
C167        C686   1.479       .  S
C168        C710   1.479       .  S
O169       Cu177   2.008       .  S
O169        C179   1.278       .  A
O170       Cu177   2.010       .  S
O170        C180   1.277       .  A
O171       Cu177   2.011       .  S
O171        C181   1.279       .  A
O172       Cu177   2.014       .  S
O172        C182   1.277       .  A
O173       Cu178   2.004       .  S
O173        C182   1.276   1_556  A
O174       Cu178   1.997       .  S
O174        C181   1.276   1_556  A
O175       Cu178   2.011       .  S
O175        C180   1.277   1_556  A
O176       Cu178   2.007       .  S
O176        C179   1.278   1_556  A
Cu177      Cu178   2.376   1_554  S
C179        C662   1.481       .  S
C181        C629   1.478       .  S
C182        C294   1.458       .  S
O183       Cu191   2.001       .  S
O183        C193   1.277       .  A
O184       Cu191   2.005       .  S
O184        C194   1.276       .  A
O185       Cu191   2.011       .  S
O185        C195   1.279       .  A
O186       Cu191   2.011       .  S
O186        C196   1.277       .  A
O187       Cu192   2.008       .  S
O187        C196   1.276       .  A
O188       Cu192   2.006       .  S
O188        C195   1.277       .  A
O189       Cu192   2.010       .  S
O189        C194   1.277       .  A
O190       Cu192   2.012       .  S
O190        C193   1.279       .  A
Cu191      Cu192   2.377       .  S
C193        C581   1.475       .  S
C194        C306   1.457       .  S
C195        C614   1.477       .  S
O197       Cu205   2.007       .  S
O197        C207   1.276   1_556  A
O198       Cu205   2.004       .  S
O198        C208   1.277   1_556  A
O199       Cu205   2.009       .  S
O199        C209   1.276   1_556  A
O200       Cu205   2.006       .  S
O200        C210   1.278   1_556  A
O201       Cu206   2.006       .  S
O201        C210   1.277       .  A
O202       Cu206   2.010       .  S
O202        C209   1.277       .  A
O203       Cu206   2.011       .  S
O203        C208   1.278       .  A
O204       Cu206   2.006       .  S
O204        C207   1.277       .  A
Cu205      Cu206   2.377   1_556  S
C208        C653   1.477       .  S
C210        C557   1.477       .  S
O211       Cu219   2.012       .  S
O211        C221   1.277       .  A
O212       Cu219   2.009       .  S
O212        C222   1.278       .  A
O213       Cu219   2.002       .  S
O213        C223   1.276       .  A
O214       Cu219   2.006       .  S
O214        C224   1.278       .  A
O215       Cu220   2.010       .  S
O215        C224   1.278       .  A
O216       Cu220   2.008       .  S
O216        C223   1.277       .  A
O217       Cu220   2.006       .  S
O217        C222   1.277       .  A
O218       Cu220   2.005       .  S
O218        C221   1.276       .  A
Cu219      Cu220   2.377       .  S
C222        C533   1.480       .  S
C224        C605   1.479       .  S
O225       Cu233   2.010       .  S
O225        C235   1.278   1_556  A
O226       Cu233   2.016       .  S
O226        C236   1.278       .  A
O227       Cu233   2.005       .  S
O227        C237   1.276       .  A
O228       Cu233   2.001       .  S
O228        C238   1.277       .  A
O229       Cu234   2.010       .  S
O229        C238   1.279   1_554  A
O230       Cu234   2.010       .  S
O230        C237   1.277   1_554  A
O231       Cu234   2.003       .  S
O231        C236   1.276   1_554  A
O232       Cu234   2.003       .  S
O232        C235   1.277       .  A
Cu233      Cu234   2.376   1_556  S
C235        C638   1.476       .  S
C236        C320   1.459       .  S
C238        C509   1.479       .  S
O239       Cu247   2.006       .  S
O239        C249   1.278       .  A
O240       Cu247   2.008       .  S
O240        C250   1.276       .  A
O241       Cu247   2.007       .  S
O241        C251   1.278       .  A
O242       Cu247   2.008       .  S
O242        C252   1.276       .  A
O243       Cu248   2.008       .  S
O243        C252   1.277       .  A
O244       Cu248   2.007       .  S
O244        C251   1.278       .  A
O245       Cu248   1.999       .  S
O245        C250   1.275       .  A
O246       Cu248   2.003       .  S
O246        C249   1.277       .  A
Cu247      Cu248   2.377       .  S
C249        C485   1.476       .  S
C251        C590   1.482       .  S
C252        C334   1.458       .  S
O253       Cu261   2.008       .  S
O253        C263   1.277   1_554  A
O254       Cu261   2.006       .  S
O254        C264   1.278       .  A
O255       Cu261   2.000       .  S
O255        C265   1.276   1_554  A
O256       Cu261   2.004       .  S
O256        C266   1.277       .  A
O257       Cu262   2.004       .  S
O257        C266   1.278   1_556  A
O258       Cu262   2.005       .  S
O258        C265   1.276       .  A
O259       Cu262   2.000       .  S
O259        C264   1.277   1_556  A
O260       Cu262   2.002       .  S
O260        C263   1.275       .  A
Cu261      Cu262   2.378   1_554  S
C264        C518   1.474       .  S
C266        C566   1.479       .  S
O267       Cu275   2.002       .  S
O267        C277   1.277       .  A
O268       Cu275   2.005       .  S
O268        C278   1.276       .  A
O269       Cu275   2.013       .  S
O269        C279   1.278       .  A
O270       Cu275   2.012       .  S
O270        C280   1.277       .  A
O271       Cu276   2.004       .  S
O271        C280   1.276       .  A
O272       Cu276   2.005       .  S
O272        C279   1.277       .  A
O273       Cu276   2.005       .  S
O273        C278   1.276       .  A
O274       Cu276   2.007       .  S
O274        C277   1.278       .  A
Cu275      Cu276   2.377       .  S
C277        C542   1.476       .  S
C279        C494   1.479       .  S
O281       Cu289   2.009   1_556  S
O281        C291   1.278       .  A
O282       Cu289   2.008       .  S
O282        C292   1.278       .  A
O283       Cu289   2.011       .  S
O283        C293   1.278       .  A
O284       Cu289   2.006       .  S
O284        C294   1.276       .  A
O285       Cu290   2.012       .  S
O285        C294   1.277       .  A
O286       Cu290   2.012       .  S
O286        C293   1.278       .  A
O287       Cu290   2.008       .  S
O287        C292   1.278       .  A
O288       Cu290   2.007   1_556  S
O288        C291   1.277       .  A
Cu289      Cu290   2.374       .  S
C291        C413   1.475       .  S
C292        C437   1.480       .  S
C293        C461   1.482   1_554  S
O295       Cu303   2.008       .  S
O295        C305   1.279       .  A
O296       Cu303   2.007       .  S
O296        C306   1.276       .  A
O297       Cu303   2.007       .  S
O297        C307   1.278       .  A
O298       Cu303   2.007       .  S
O298        C308   1.278       .  A
O299       Cu304   2.010       .  S
O299        C308   1.278       .  A
O300       Cu304   2.007       .  S
O300        C307   1.277       .  A
O301       Cu304   2.008       .  S
O301        C306   1.276       .  A
O302       Cu304   2.012       .  S
O302        C305   1.277       .  A
Cu303      Cu304   2.371       .  S
C305        C398   1.493       .  S
C307        C446   1.478       .  S
C308        C422   1.483       .  S
O309       Cu317   2.013       .  S
O309        C319   1.278       .  A
O310       Cu317   2.014       .  S
O310        C320   1.277       .  A
O311       Cu317   2.012   1_554  S
O311        C321   1.278       .  A
O312       Cu317   2.015       .  S
O312        C322   1.279       .  A
O313       Cu318   1.999       .  S
O313        C322   1.276       .  A
O314       Cu318   2.003   1_554  S
O314        C321   1.277       .  A
O315       Cu318   2.007       .  S
O315        C320   1.276       .  A
O316       Cu318   2.010       .  S
O316        C319   1.278       .  A
Cu317      Cu318   2.373       .  S
C319        C470   1.483       .  S
C321        C365   1.475       .  S
C322        C341   1.483       .  S
O323       Cu331   2.006       .  S
O323        C333   1.277       .  A
O324       Cu331   2.004       .  S
O324        C334   1.276       .  A
O325       Cu331   2.004       .  S
O325        C335   1.277       .  A
O326       Cu331   2.007       .  S
O326        C336   1.279       .  A
O327       Cu332   2.010       .  S
O327        C336   1.278       .  A
O328       Cu332   2.009       .  S
O328        C335   1.278       .  A
O329       Cu332   2.012       .  S
O329        C334   1.277       .  A
O330       Cu332   2.009       .  S
O330        C333   1.277       .  A
Cu331      Cu332   2.374       .  S
C333        C389   1.471       .  S
C335        C350   1.476       .  S
C336        C374   1.484       .  S
C337        C338   1.400       .  A
C337        C342   1.397       .  A
C337        H347   1.084       .  S
C338        C343   1.478       .  S
C338        C339   1.411       .  A
C339        C340   1.401       .  A
C339        S344   1.804       .  S
C340        C341   1.407       .  A
C340        H345   1.084       .  S
C341        C342   1.418       .  A
C342        S346   1.803       .  S
C343        C348   1.409       .  A
C343        C352   1.401       .  A
S344        H360   1.406       .  S
S346        H357   1.408       .  S
C348        C349   1.402       .  A
C348        S353   1.807       .  S
C349        C350   1.404       .  A
C349        H354   1.083       .  S
C350        C351   1.415       .  A
C351        C352   1.399       .  A
C351        S355   1.803       .  S
C352        H356   1.084       .  S
S353        H358   1.407       .  S
S355        H359   1.407       .  S
C361        C362   1.402       .  A
C361        C366   1.400       .  A
C361        H371   1.084       .  S
C362        C367   1.478       .  S
C362        C363   1.412       .  A
C363        C364   1.398       .  A
C363        S368   1.805       .  S
C364        C365   1.402       .  A
C364        H369   1.084       .  S
C365        C366   1.415       .  A
C366        S370   1.804       .  S
C367        C372   1.407       .  A
C367        C376   1.401       .  A
S368        H384   1.405       .  S
S370        H381   1.407       .  S
C372        C373   1.401       .  A
C372        S377   1.807       .  S
C373        C374   1.406       .  A
C373        H378   1.082       .  S
C374        C375   1.418       .  A
C375        C376   1.401       .  A
C375        S379   1.802       .  S
C376        H380   1.084       .  S
S377        H382   1.407       .  S
S379        H383   1.407       .  S
C385        C386   1.404       .  A
C385        C390   1.399   1_455  A
C385        H395   1.084       .  S
C386        C391   1.482       .  S
C386        C387   1.413       .  A
C387        C388   1.399   1_455  A
C387        S392   1.804       .  S
C388        C389   1.402       .  A
C388        H393   1.084       .  S
C389        C390   1.412       .  A
C390        S394   1.804       .  S
C391        C396   1.407       .  A
C391        C400   1.400       .  A
S392        H408   1.406       .  S
S394        H405   1.406       .  S
C396        C397   1.403       .  A
C396        S401   1.807       .  S
C397        C398   1.411       .  A
C397        H402   1.082       .  S
C398        C399   1.421       .  A
C399        C400   1.398       .  A
C399        S403   1.801       .  S
C400        H404   1.084       .  S
S401        H406   1.407       .  S
S403        H407   1.404       .  S
C409        C410   1.401       .  A
C409        C414   1.399       .  A
C409        H419   1.084       .  S
C410        C415   1.477       .  S
C410        C411   1.412       .  A
C411        C412   1.398       .  A
C411        S416   1.805       .  S
C412        C413   1.403       .  A
C412        H417   1.084       .  S
C413        C414   1.414       .  A
C414        S418   1.803       .  S
C415        C420   1.408       .  A
C415        C424   1.400       .  A
S416        H432   1.405       .  S
S418        H429   1.407       .  S
C420        C421   1.402       .  A
C420        S425   1.807       .  S
C421        C422   1.407       .  A
C421        H426   1.083       .  S
C422        C423   1.417       .  A
C423        C424   1.399       .  A
C423        S427   1.800       .  S
C424        H428   1.084       .  S
S425        H430   1.407       .  S
S427        H431   1.406       .  S
C433        C434   1.401       .  A
C433        C438   1.400       .  A
C433        H443   1.084       .  S
C434        C439   1.478       .  S
C434        C435   1.411       .  A
C435        C436   1.398       .  A
C435        S440   1.805       .  S
C436        C437   1.405       .  A
C436        H441   1.084       .  S
C437        C438   1.416       .  A
C438        S442   1.803       .  S
C439        C444   1.408       .  A
C439        C448   1.401       .  A
S440        H456   1.405       .  S
S442        H453   1.408       .  S
C444        C445   1.402       .  A
C444        S449   1.807       .  S
C445        C446   1.405       .  A
C445        H450   1.083       .  S
C446        C447   1.415       .  A
C447        C448   1.399       .  A
C447        S451   1.803       .  S
C448        H452   1.084       .  S
S449        H454   1.407       .  S
S451        H455   1.407       .  S
C457        C458   1.402       .  A
C457        C462   1.400       .  A
C457        H467   1.084       .  S
C458        C463   1.482       .  S
C458        C459   1.412   1_556  A
C459        C460   1.400       .  A
C459        S464   1.804       .  S
C460        C461   1.405   1_554  A
C460        H465   1.084       .  S
C461        C462   1.416       .  A
C462        S466   1.803       .  S
C463        C468   1.409   1_556  A
C463        C472   1.401       .  A
S464        H480   1.406       .  S
S466        H477   1.407       .  S
C468        C469   1.404   1_455  A
C468        S473   1.806       .  S
C469        C470   1.406   1_554  A
C469        H474   1.083       .  S
C470        C471   1.416       .  A
C471        C472   1.400   1_655  A
C471        S475   1.803       .  S
C472        H476   1.084       .  S
S473        H478   1.407       .  S
S475        H479   1.408       .  S
C481        C482   1.401       .  A
C481        C486   1.399       .  A
C481        H491   1.084       .  S
C482        C487   1.477       .  S
C482        C483   1.412       .  A
C483        C484   1.398       .  A
C483        S488   1.805       .  S
C484        C485   1.404       .  A
C484        H489   1.084       .  S
C485        C486   1.414       .  A
C486        S490   1.804       .  S
C487        C492   1.408       .  A
C487        C496   1.401       .  A
S488        H504   1.405       .  S
S490        H501   1.408       .  S
C492        C493   1.402       .  A
C492        S497   1.807       .  S
C493        C494   1.406       .  A
C493        H498   1.083       .  S
C494        C495   1.415       .  A
C495        C496   1.399       .  A
C495        S499   1.803       .  S
C496        H500   1.084       .  S
S497        H502   1.407       .  S
S499        H503   1.407       .  S
C505        C506   1.400   1_556  A
C505        C510   1.398       .  A
C505        H515   1.084       .  S
C506        C511   1.476       .  S
C506        C507   1.411       .  A
C507        C508   1.398       .  A
C507        S512   1.805       .  S
C508        C509   1.405   1_554  A
C508        H513   1.084       .  S
C509        C510   1.416       .  A
C510        S514   1.803       .  S
C511        C516   1.409       .  A
C511        C520   1.400   1_554  A
S512        H528   1.406       .  S
S514        H525   1.407       .  S
C516        C517   1.402       .  A
C516        S521   1.807       .  S
C517        C518   1.404       .  A
C517        H522   1.083       .  S
C518        C519   1.415   1_554  A
C519        C520   1.397       .  A
C519        S523   1.804       .  S
C520        H524   1.084       .  S
S521        H526   1.407       .  S
S523        H527   1.407       .  S
C529        C530   1.400       .  A
C529        C534   1.398       .  A
C529        H539   1.084       .  S
C530        C535   1.477       .  S
C530        C531   1.411       .  A
C531        C532   1.399       .  A
C531        S536   1.805       .  S
C532        C533   1.406       .  A
C532        H537   1.084       .  S
C533        C534   1.416       .  A
C534        S538   1.802       .  S
C535        C540   1.409       .  A
C535        C544   1.400       .  A
S536        H552   1.405       .  S
S538        H549   1.408       .  S
C540        C541   1.402       .  A
C540        S545   1.807       .  S
C541        C542   1.404       .  A
C541        H546   1.083       .  S
C542        C543   1.416       .  A
C543        C544   1.398       .  A
C543        S547   1.803       .  S
C544        H548   1.084       .  S
S545        H550   1.407       .  S
S547        H551   1.407       .  S
C553        C554   1.401       .  A
C553        C558   1.398       .  A
C553        H563   1.084       .  S
C554        C559   1.476       .  S
C554        C555   1.412   1_554  A
C555        C556   1.398       .  A
C555        S560   1.805       .  S
C556        C557   1.404   1_556  A
C556        H561   1.084       .  S
C557        C558   1.415       .  A
C558        S562   1.803       .  S
C559        C564   1.408   1_554  A
C559        C568   1.400       .  A
S560        H576   1.405       .  S
S562        H573   1.407       .  S
C564        C565   1.401       .  A
C564        S569   1.807       .  S
C565        C566   1.405   1_556  A
C565        H570   1.083       .  S
C566        C567   1.417       .  A
C567        C568   1.398       .  A
C567        S571   1.803       .  S
C568        H572   1.084       .  S
S569        H574   1.407       .  S
S571        H575   1.407       .  S
C577        C578   1.401       .  A
C577        C582   1.399       .  A
C577        H587   1.084       .  S
C578        C583   1.477       .  S
C578        C579   1.412       .  A
C579        C580   1.399       .  A
C579        S584   1.805       .  S
C580        C581   1.404       .  A
C580        H585   1.084       .  S
C581        C582   1.414       .  A
C582        S586   1.804       .  S
C583        C588   1.408       .  A
C583        C592   1.400       .  A
S584        H600   1.405       .  S
S586        H597   1.407       .  S
C588        C589   1.402       .  A
C588        S593   1.807       .  S
C589        C590   1.407       .  A
C589        H594   1.083       .  S
C590        C591   1.417       .  A
C591        C592   1.399       .  A
C591        S595   1.803       .  S
C592        H596   1.084       .  S
S593        H598   1.407       .  S
S595        H599   1.408       .  S
C601        C602   1.402       .  A
C601        C606   1.400       .  A
C601        H611   1.084       .  S
C602        C607   1.477       .  S
C602        C603   1.411       .  A
C603        C604   1.399       .  A
C603        S608   1.805       .  S
C604        C605   1.405       .  A
C604        H609   1.084       .  S
C605        C606   1.415       .  A
C606        S610   1.803       .  S
C607        C612   1.409       .  A
C607        C616   1.401       .  A
S608        H624   1.404       .  S
S610        H621   1.407       .  S
C612        C613   1.403       .  A
C612        S617   1.806       .  S
C613        C614   1.405       .  A
C613        H618   1.083       .  S
C614        C615   1.414       .  A
C615        C616   1.399       .  A
C615        S619   1.803       .  S
C616        H620   1.084       .  S
S617        H622   1.407       .  S
S619        H623   1.408       .  S
C625        C626   1.400   1_556  A
C625        C630   1.397       .  A
C625        H635   1.084       .  S
C626        C631   1.476       .  S
C626        C627   1.411       .  A
C627        C628   1.399       .  A
C627        S632   1.804       .  S
C628        C629   1.405       .  A
C628        H633   1.084       .  S
C629        C630   1.416   1_554  A
C630        S634   1.804       .  S
C631        C636   1.409       .  A
C631        C640   1.401   1_554  A
S632        H648   1.405       .  S
S634        H645   1.408       .  S
C636        C637   1.403       .  A
C636        S641   1.807       .  S
C637        C638   1.406       .  A
C637        H642   1.083       .  S
C638        C639   1.414   1_554  A
C639        C640   1.397       .  A
C639        S643   1.803       .  S
C640        H644   1.084       .  S
S641        H646   1.407       .  S
S643        H647   1.407       .  S
C649        C650   1.401   1_556  A
C649        C654   1.398       .  A
C649        H659   1.084       .  S
C650        C655   1.478       .  S
C650        C651   1.412       .  A
C651        C652   1.400       .  A
C651        S656   1.805       .  S
C652        C653   1.405       .  A
C652        H657   1.084       .  S
C653        C654   1.414   1_554  A
C654        S658   1.804       .  S
C655        C660   1.408       .  A
C655        C664   1.401   1_554  A
S656        H672   1.405       .  S
S658        H669   1.407       .  S
C660        C661   1.402       .  A
C660        S665   1.807       .  S
C661        C662   1.406       .  A
C661        H666   1.083       .  S
C662        C663   1.416   1_554  A
C663        C664   1.399       .  A
C663        S667   1.803       .  S
C664        H668   1.084       .  S
S665        H670   1.407       .  S
S667        H671   1.408       .  S
C673        C674   1.402       .  A
C673        C678   1.400       .  A
C673        H683   1.084       .  S
C674        C679   1.477       .  S
C674        C675   1.411       .  A
C675        C676   1.399       .  A
C675        S680   1.805       .  S
C676        C677   1.405       .  A
C676        H681   1.084       .  S
C677        C678   1.414       .  A
C678        S682   1.803       .  S
C679        C684   1.408       .  A
C679        C688   1.401       .  A
S680        H696   1.405       .  S
S682        H693   1.407       .  S
C684        C685   1.403       .  A
C684        S689   1.806       .  S
C685        C686   1.406       .  A
C685        H690   1.083       .  S
C686        C687   1.415       .  A
C687        C688   1.399       .  A
C687        S691   1.803       .  S
C688        H692   1.084       .  S
S689        H694   1.407       .  S
S691        H695   1.407       .  S
C697        C698   1.402       .  A
C697        C702   1.398       .  A
C697        H707   1.084       .  S
C698        C703   1.478       .  S
C698        C699   1.411       .  A
C699        C700   1.399       .  A
C699        S704   1.804       .  S
C700        C701   1.406       .  A
C700        H705   1.084       .  S
C701        C702   1.415       .  A
C702        S706   1.803       .  S
C703        C708   1.408       .  A
C703        C712   1.402       .  A
S704        H720   1.405       .  S
S706        H717   1.407       .  S
C708        C709   1.401       .  A
C708        S713   1.807       .  S
C709        C710   1.405       .  A
C709        H714   1.083       .  S
C710        C711   1.416       .  A
C711        C712   1.400       .  A
C711        S715   1.803       .  S
C712        H716   1.084       .  S
S713        H718   1.407       .  S
S715        H719   1.407       .  S
C721        C722   1.402       .  A
C721        C726   1.399       .  A
C721        H731   1.084       .  S
C722        C727   1.480       .  S
C722        C723   1.412       .  A
C723        C724   1.399       .  A
C723        S728   1.804       .  S
C724        C725   1.404       .  A
C724        H729   1.084       .  S
C725        C726   1.416       .  A
C726        S730   1.804       .  S
C727        C732   1.409       .  A
C727        C736   1.401       .  A
S728        H744   1.406       .  S
S730        H741   1.408       .  S
C732        C733   1.404   1_545  A
C732        S737   1.807       .  S
C733        C734   1.406       .  A
C733        H738   1.083       .  S
C734        C735   1.415       .  A
C735        C736   1.398   1_565  A
C735        S739   1.803       .  S
C736        H740   1.084       .  S
S737        H742   1.407       .  S
S739        H743   1.407       .  S
C745        C746   1.401       .  A
C745        C750   1.398       .  A
C745        H755   1.084       .  S
C746        C751   1.477       .  S
C746        C747   1.411       .  A
C747        C748   1.399       .  A
C747        S752   1.804       .  S
C748        C749   1.405       .  A
C748        H753   1.084       .  S
C749        C750   1.416       .  A
C750        S754   1.803       .  S
C751        C756   1.408       .  A
C751        C760   1.401       .  A
S752        H768   1.406       .  S
S754        H765   1.408       .  S
C756        C757   1.401       .  A
C756        S761   1.807       .  S
C757        C758   1.405       .  A
C757        H762   1.083       .  S
C758        C759   1.415       .  A
C759        C760   1.399       .  A
C759        S763   1.803       .  S
C760        H764   1.084       .  S
S761        H766   1.407       .  S
S763        H767   1.407       .  S
C769        C770   1.402       .  A
C769        C774   1.399       .  A
C769        H779   1.084       .  S
C770        C775   1.478       .  S
C770        C771   1.412       .  A
C771        C772   1.398       .  A
C771        S776   1.805       .  S
C772        C773   1.404       .  A
C772        H777   1.084       .  S
C773        C774   1.416       .  A
C774        S778   1.804       .  S
C775        C780   1.409       .  A
C775        C784   1.400       .  A
S776        H792   1.405       .  S
S778        H789   1.407       .  S
C780        C781   1.402       .  A
C780        S785   1.807       .  S
C781        C782   1.406       .  A
C781        H786   1.083       .  S
C782        C783   1.416       .  A
C783        C784   1.399       .  A
C783        S787   1.803       .  S
C784        H788   1.084       .  S
S785        H790   1.407       .  S
S787        H791   1.407       .  S
C793        C794   1.402       .  A
C793        C798   1.399   1_545  A
C793        H803   1.084       .  S
C794        C799   1.479       .  S
C794        C795   1.412   1_556  A
C795        C796   1.399   1_545  A
C795        S800   1.804       .  S
C796        C797   1.405   1_554  A
C796        H801   1.084       .  S
C797        C798   1.415       .  A
C798        S802   1.803       .  S
C799        C804   1.409   1_556  A
C799        C808   1.401       .  A
S800        H816   1.405       .  S
S802        H813   1.407       .  S
C804        C805   1.403       .  A
C804        S809   1.807       .  S
C805        C806   1.405   1_554  A
C805        H810   1.083       .  S
C806        C807   1.416       .  A
C807        C808   1.399       .  A
C807        S811   1.803       .  S
C808        H812   1.084       .  S
S809        H814   1.406       .  S
S811        H815   1.408       .  S
C817        C818   1.402       .  A
C817        C822   1.400       .  A
C817        H827   1.084       .  S
C818        C823   1.477       .  S
C818        C819   1.412       .  A
C819        C820   1.398       .  A
C819        S824   1.805       .  S
C820        C821   1.404       .  A
C820        H825   1.084       .  S
C821        C822   1.416       .  A
C822        S826   1.803       .  S
C823        C828   1.408       .  A
C823        C832   1.401       .  A
S824        H840   1.405       .  S
S826        H837   1.408       .  S
C828        C829   1.403       .  A
C828        S833   1.806       .  S
C829        C830   1.405       .  A
C829        H834   1.083       .  S
C830        C831   1.415       .  A
C831        C832   1.399       .  A
C831        S835   1.804       .  S
C832        H836   1.084       .  S
S833        H838   1.407       .  S
S835        H839   1.407       .  S
C841        C842   1.402       .  A
C841        C846   1.399       .  A
C841        H851   1.084       .  S
C842        C847   1.477       .  S
C842        C843   1.412       .  A
C843        C844   1.398       .  A
C843        S848   1.805       .  S
C844        C845   1.404       .  A
C844        H849   1.084       .  S
C845        C846   1.415       .  A
C846        S850   1.804       .  S
C847        C852   1.409       .  A
C847        C856   1.400       .  A
S848        H864   1.405       .  S
S850        H861   1.407       .  S
C852        C853   1.403       .  A
C852        S857   1.807       .  S
C853        C854   1.406       .  A
C853        H858   1.083       .  S
C854        C855   1.415       .  A
C855        C856   1.397       .  A
C855        S859   1.800       .  S
C856        H860   1.084       .  S
S857        H862   1.407       .  S
S859        H863   1.406       .  S
C865        C866   1.401       .  A
C865        C870   1.400   1_455  A
C865        H875   1.084       .  S
C866        C871   1.480       .  S
C866        C867   1.409       .  A
C867        C868   1.397   1_455  A
C867        S872   1.804       .  S
C868        C869   1.409       .  A
C868        H873   1.083       .  S
C869        C870   1.422       .  A
C870        S874   1.801       .  S
C871        C876   1.409       .  A
C871        C880   1.403       .  A
S872        H888   1.406       .  S
S874        H885   1.400       .  S
C876        C877   1.402       .  A
C876        S881   1.807       .  S
C877        C878   1.403       .  A
C877        H882   1.083       .  S
C878        C879   1.413       .  A
C879        C880   1.399       .  A
C879        S883   1.804       .  S
C880        H884   1.084       .  S
S881        H886   1.407       .  S
S883        H887   1.406       .  S
C889        C890   1.401       .  A
C889        C894   1.399       .  A
C889        H899   1.084       .  S
C890        C895   1.477       .  S
C890        C891   1.411       .  A
C891        C892   1.398       .  A
C891        S896   1.805       .  S
C892        C893   1.405       .  A
C892        H897   1.084       .  S
C893        C894   1.416       .  A
C894        S898   1.803       .  S
C895        C900   1.409       .  A
C895        C904   1.399       .  A
S896        H912   1.405       .  S
S898        H909   1.407       .  S
C900        C901   1.404       .  A
C900        S905   1.806       .  S
C901        C902   1.406       .  A
C901        H906   1.082       .  S
C902        C903   1.414       .  A
C903        C904   1.396       .  A
C903        S907   1.798       .  S
C904        H908   1.084       .  S
S905        H910   1.407       .  S
S907        H911   1.407       .  S
C913        C914   1.402       .  A
C913        C918   1.399       .  A
C913        H923   1.084       .  S
C914        C919   1.479       .  S
C914        C915   1.412       .  A
C915        C916   1.399       .  A
C915        S920   1.805       .  S
C916        C917   1.405       .  A
C916        H921   1.084       .  S
C917        C918   1.415       .  A
C918        S922   1.804       .  S
C919        C924   1.409       .  A
C919        C928   1.400       .  A
S920        H936   1.405       .  S
S922        H933   1.407       .  S
C924        C925   1.404       .  A
C924        S929   1.807       .  S
C925        C926   1.407       .  A
C925        H930   1.083       .  S
C926        C927   1.416       .  A
C927        C928   1.397       .  A
C927        S931   1.803       .  S
C928        H932   1.084       .  S
S929        H934   1.406       .  S
S931        H935   1.408       .  S
C937        C938   1.404   1_554  A
C937        C942   1.398   1_455  A
C937        H947   1.084       .  S
C938        C943   1.483       .  S
C938        C939   1.414       .  A
C939        C940   1.399   1_455  A
C939        S944   1.804       .  S
C940        C941   1.402       .  A
C940        H945   1.084       .  S
C941        C942   1.412   1_556  A
C942        S946   1.803       .  S
C943        C948   1.408       .  A
C943        C952   1.401   1_556  A
S944        H960   1.406       .  S
S946        H957   1.406       .  S
C948        C949   1.402       .  A
C948        S953   1.808       .  S
C949        C950   1.410   1_556  A
C949        H954   1.082       .  S
C950        C951   1.421       .  A
C951        C952   1.399       .  A
C951        S955   1.801       .  S
C952        H956   1.084       .  S
S953        H958   1.407       .  S
S955        H959   1.402       .  S
C961        C962   1.401       .  A
C961        C966   1.397       .  A
C961        H971   1.084       .  S
C962        C967   1.481       .  S
C962        C963   1.412       .  A
C963        C964   1.401       .  A
C963        S968   1.804       .  S
C964        C965   1.406       .  A
C964        H969   1.084       .  S
C965        C966   1.417       .  A
C966        S970   1.803       .  S
C967        C972   1.410       .  A
C967        C976   1.402       .  A
S968        H984   1.406       .  S
S970        H981   1.408       .  S
C972        C973   1.402       .  A
C972        S977   1.807       .  S
C973        C974   1.405       .  A
C973        H978   1.083       .  S
C974        C975   1.414       .  A
C975        C976   1.399       .  A
C975        S979   1.803       .  S
C976        H980   1.084       .  S
S977        H982   1.407       .  S
S979        H983   1.407       .  S
C985        C986   1.401       .  A
C985        C990   1.399       .  A
C985        H995   1.084       .  S
C986        C991   1.477       .  S
C986        C987   1.410       .  A
C987        C988   1.398       .  A
C987        S992   1.804       .  S
C988        C989   1.406       .  A
C988        H993   1.084       .  S
C989        C990   1.417       .  A
C990        S994   1.803       .  S
C991        C996   1.407       .  A
C991       C1000   1.401       .  A
S992       H1008   1.406       .  S
S994       H1005   1.408       .  S
C996        C997   1.402       .  A
C996       S1001   1.806       .  S
C997        C998   1.406       .  A
C997       H1002   1.083       .  S
C998        C999   1.414       .  A
C999       C1000   1.398       .  A
C999       S1003   1.802       .  S
C1000      H1004   1.084       .  S
S1001      H1006   1.407       .  S
S1003      H1007   1.407       .  S
C1009      C1010   1.401       .  A
C1009      C1014   1.400       .  A
C1009      H1019   1.084       .  S
C1010      C1015   1.478       .  S
C1010      C1011   1.410       .  A
C1011      C1012   1.399       .  A
C1011      S1016   1.804       .  S
C1012      C1013   1.405       .  A
C1012      H1017   1.084       .  S
C1013      C1014   1.416       .  A
C1014      S1018   1.803       .  S
C1015      C1020   1.408       .  A
C1015      C1024   1.401       .  A
S1016      H1032   1.406       .  S
S1018      H1029   1.408       .  S
C1020      C1021   1.402   1_545  A
C1020      S1025   1.806       .  S
C1021      C1022   1.405       .  A
C1021      H1026   1.083       .  S
C1022      C1023   1.415       .  A
C1023      C1024   1.399   1_565  A
C1023      S1027   1.803       .  S
C1024      H1028   1.084       .  S
S1025      H1030   1.407       .  S
S1027      H1031   1.407       .  S
C1033      C1034   1.401       .  A
C1033      C1038   1.398       .  A
C1033      H1043   1.084       .  S
C1034      C1039   1.477       .  S
C1034      C1035   1.411       .  A
C1035      C1036   1.399       .  A
C1035      S1040   1.804       .  S
C1036      C1037   1.404       .  A
C1036      H1041   1.084       .  S
C1037      C1038   1.415       .  A
C1038      S1042   1.803       .  S
C1039      C1044   1.408       .  A
C1039      C1048   1.400       .  A
S1040      H1056   1.406       .  S
S1042      H1053   1.407       .  S
C1044      C1045   1.403       .  A
C1044      S1049   1.806       .  S
C1045      C1046   1.407       .  A
C1045      H1050   1.083       .  S
C1046      C1047   1.416       .  A
C1047      C1048   1.398       .  A
C1047      S1051   1.803       .  S
C1048      H1052   1.084       .  S
S1049      H1054   1.407       .  S
S1051      H1055   1.408       .  S
C1057      C1058   1.401       .  A
C1057      C1062   1.397       .  A
C1057      H1067   1.084       .  S
C1058      C1063   1.479       .  S
C1058      C1059   1.413       .  A
C1059      C1060   1.399       .  A
C1059      S1064   1.804       .  S
C1060      C1061   1.403       .  A
C1060      H1065   1.084       .  S
C1061      C1062   1.416       .  A
C1062      S1066   1.804       .  S
C1063      C1068   1.409       .  A
C1063      C1072   1.401       .  A
S1064      H1080   1.406       .  S
S1066      H1077   1.407       .  S
C1068      C1069   1.402       .  A
C1068      S1073   1.807       .  S
C1069      C1070   1.406       .  A
C1069      H1074   1.083       .  S
C1070      C1071   1.417       .  A
C1071      C1072   1.398       .  A
C1071      S1075   1.803       .  S
C1072      H1076   1.084       .  S
S1073      H1078   1.407       .  S
S1075      H1079   1.408       .  S
C1081      C1082   1.401   1_556  A
C1081      C1086   1.399       .  A
C1081      H1091   1.084       .  S
C1082      C1087   1.479       .  S
C1082      C1083   1.412       .  A
C1083      C1084   1.401       .  A
C1083      S1088   1.804       .  S
C1084      C1085   1.405       .  A
C1084      H1089   1.084       .  S
C1085      C1086   1.415   1_554  A
C1086      S1090   1.804       .  S
C1087      C1092   1.408       .  A
C1087      C1096   1.401   1_554  A
S1088      H1104   1.405       .  S
S1090      H1101   1.407       .  S
C1092      C1093   1.402   1_545  A
C1092      S1097   1.806       .  S
C1093      C1094   1.405   1_554  A
C1093      H1098   1.083       .  S
C1094      C1095   1.417       .  A
C1095      C1096   1.400   1_565  A
C1095      S1099   1.803       .  S
C1096      H1100   1.084       .  S
S1097      H1102   1.407       .  S
S1099      H1103   1.407       .  S
