geometry optimzed in LAMMPS
_audit_creation_date              2020-12-01 
_audit_creation_method            'lammps2cif' 
_symmetry_space_group_name_H-M    'P1' 
_symmetry_Int_Tables_number       1 
_symmetry_cell_setting            triclinic 
loop_ 
_symmetry_equiv_pos_as_xyz 
  x,y,z 
_cell_length_a                    52.29694981 
_cell_length_b                    52.33455508034715 
_cell_length_c                    30.506037148068287 
_cell_angle_alpha                 89.52460108909469 
_cell_angle_beta                  89.85294063107428 
_cell_angle_gamma                 90.02344216025092 
loop_ 
_atom_site_label 
_atom_site_type_symbol 
_atom_site_fract_x 
_atom_site_fract_y 
_atom_site_fract_z 
_atom_site_charge 
Fe1        Fe  0.34506243  0.15535820  0.34184397     1.65800
Fe2        Fe  0.31479934  0.18308241  0.42787882     1.73200
Fe3        Fe  0.29846662  0.19828219  0.32379427     1.54400
O4          O  0.32728832  0.20227592  0.27681087    -0.81400
O5          O  0.27602522  0.17643042  0.42534822    -0.79700
O6          O  0.36205572  0.18336931  0.30340389    -0.83900
O7          O  0.32290139  0.14488232  0.28830274    -0.78700
O8          O  0.31021627  0.23215096  0.35115411    -0.80500
O9          O  0.31970211  0.14424639  0.44162579    -0.83200
C10         C  0.30011290  0.14885874  0.27552238     0.97500
C11         C  0.35113454  0.19759207  0.27515739     1.05000
O12         O  0.31945052  0.17890162  0.36462042    -1.12200
O13         O  0.35304710  0.19093846  0.43602887    -0.74700
O14         O  0.37155320  0.16322377  0.39102690    -0.78100
O15         O  0.28584797  0.16521886  0.29408733    -0.78800
C16         C  0.37273974  0.17972550  0.42136705     0.96400
O17         O  0.32880785  0.12584922  0.37764195    -0.76800
O18         O  0.30788833  0.22213860  0.42202130    -0.82000
C19         C  0.26014804  0.18839076  0.40149877     0.99000
C20         C  0.30775749  0.23854828  0.39098485     1.05000
O21         O  0.26637298  0.19809297  0.36459874    -0.77600
C22         C  0.32100645  0.12471216  0.41713510     1.03300
N23         N  0.22920841  0.06811697  0.00387411    -0.03200
C24         C  0.22626108  0.04304618  0.99270825    -0.00600
C25         C  0.20344753  0.03970367  0.97080815    -0.23500
C26         C  0.19199955  0.06327740  0.96800037    -0.23700
C27         C  0.20836753  0.08061796  0.98738177    -0.00700
H28         H  0.19690591  0.02244363  0.95534035     0.13100
H29         H  0.17488744  0.06772290  0.94970334     0.13100
N30         N  0.43506775  0.26390949  0.99747386    -0.03200
C31         C  0.45993523  0.26310813  0.98298579    -0.00600
C32         C  0.46258463  0.27720693  0.94464794    -0.23500
C33         C  0.43939474  0.28764540  0.93538917    -0.23700
C34         C  0.42277179  0.27897199  0.96728877    -0.00700
H35         H  0.47973671  0.27935665  0.92495095     0.13100
H36         H  0.43474240  0.29930208  0.90702829     0.13100
Fe37       Fe  0.33749728  0.85367309  0.82672920     1.65800
Fe38       Fe  0.31399162  0.82598321  0.92033546     1.73200
Fe39       Fe  0.29497366  0.80443713  0.82035232     1.54400
O40         O  0.28460644  0.83282529  0.77559384    -0.81400
O41         O  0.32019612  0.78690788  0.92143807    -0.79700
O42         O  0.30869081  0.86728506  0.78646911    -0.83900
O43         O  0.34887389  0.82942811  0.77711169    -0.78700
O44         O  0.26191530  0.81176451  0.85503777    -0.80500
O45         O  0.35286827  0.83082544  0.92799214    -0.83200
C46         C  0.34373623  0.80701090  0.76431144     0.97500
C47         C  0.29107725  0.85565954  0.76601983     1.05000
O48         O  0.31537249  0.82809333  0.85574932    -1.12200
O49         O  0.30725587  0.86431616  0.92628531    -0.74700
O50         O  0.32850849  0.88252933  0.87087420    -0.78100
O51         O  0.32585682  0.79407052  0.78175755    -0.78800
C52         C  0.31500358  0.88383258  0.90546134     0.96400
O53         O  0.36882960  0.84157345  0.86288488    -0.76800
O54         O  0.27489259  0.82149627  0.92182739    -0.82000
C55         C  0.31311494  0.76883690  0.89679821     0.99000
C56         C  0.25718257  0.81708315  0.89475057     1.05000
O57         O  0.30256979  0.77295201  0.85993895    -0.77600
C58         C  0.37171627  0.83453563  0.90254839     1.03300
N59         N  0.43134427  0.74100375  0.49330610    -0.03200
C60         C  0.45633593  0.73885475  0.47995070    -0.00600
C61         C  0.45851168  0.71913651  0.45029875    -0.23500
C62         C  0.43450179  0.70894645  0.44489692    -0.23700
C63         C  0.41803200  0.72270560  0.47117099    -0.00700
H64         H  0.47548432  0.71399254  0.43195258     0.13100
H65         H  0.42925751  0.69424791  0.42179013     0.13100
N66         N  0.24387187  0.93016420  0.47378521    -0.03200
C67         C  0.25079189  0.95144139  0.45003437    -0.00600
C68         C  0.24263689  0.94939402  0.40718676    -0.23500
C69         C  0.23097908  0.92618658  0.40349468    -0.23700
C70         C  0.23148400  0.91479559  0.44449061    -0.00700
H71         H  0.24525134  0.96330943  0.38111170     0.13100
H72         H  0.22267326  0.91844967  0.37396185     0.13100
Fe73       Fe  0.65163845  0.85351694  0.34163444     1.65800
Fe74       Fe  0.67804894  0.82170012  0.42748731     1.73200
Fe75       Fe  0.69529205  0.80730862  0.32404827     1.54400
O76         O  0.66303543  0.79546748  0.29039637    -0.81400
O77         O  0.71701863  0.81254286  0.42420482    -0.79700
O78         O  0.64095094  0.83172818  0.28800744    -0.83900
O79         O  0.67933612  0.87086899  0.30362952    -0.78700
O80         O  0.69295295  0.77455538  0.36336436    -0.80500
O81         O  0.68789176  0.85933250  0.43654025    -0.83200
C82         C  0.69410629  0.86046329  0.27594612     0.97500
C83         C  0.64566089  0.80945117  0.27366250     1.05000
O84         O  0.67501148  0.82760264  0.36423333    -1.12200
O85         O  0.63934674  0.82852156  0.44063500    -0.74700
O86         O  0.62160793  0.83722883  0.37603928    -0.78100
O87         O  0.70032055  0.83698716  0.27866010    -0.78800
C88         C  0.61999529  0.82961534  0.41552054     0.96400
O89         O  0.66071987  0.87929911  0.39133172    -0.76800
O90         O  0.66890895  0.78376769  0.42141471    -0.82000
C91         C  0.73440222  0.81359752  0.39491698     0.99000
C92         C  0.68057042  0.76781266  0.39758226     1.05000
O93         O  0.72885666  0.81796310  0.35501604    -0.77600
C94         C  0.67796220  0.87953073  0.42082370     1.03300
N95         N  0.73930479  0.93488512  0.98049573    -0.03200
C96         C  0.73445514  0.95824630  0.96158689    -0.00600
C97         C  0.74165789  0.95830255  0.91792957    -0.23500
C98         C  0.75199495  0.93501509  0.90939764    -0.23700
C99         C  0.74999642  0.92079813  0.94749533    -0.00700
H100        H  0.73999580  0.97402066  0.89481926     0.13100
H101        H  0.75981988  0.92887391  0.87835928     0.13100
N102        N  0.57473784  0.78939881  0.97306725    -0.03200
C103        C  0.55617790  0.80219437  0.95046355    -0.00600
C104        C  0.56420459  0.80630245  0.90761157    -0.23500
C105        C  0.58772259  0.79495914  0.90316085    -0.23700
C106        C  0.59376806  0.78467300  0.94354226    -0.00700
H107        H  0.55287699  0.81415457  0.88117922     0.13100
H108        H  0.59848889  0.79295084  0.87304283     0.13100
Fe109      Fe  0.64935810  0.16083181  0.83372674     1.65800
Fe110      Fe  0.68067751  0.18698148  0.91917382     1.73200
Fe111      Fe  0.69697907  0.20289031  0.81549691     1.54400
O112        O  0.70871829  0.16966783  0.78495817    -0.81400
O113        O  0.68874010  0.22581717  0.91447119    -0.79700
O114        O  0.67141689  0.15003397  0.77978779    -0.83900
O115        O  0.63319449  0.18957653  0.79593487    -0.78700
O116        O  0.72904808  0.20194325  0.85609909    -0.80500
O117        O  0.64286322  0.19613833  0.92877121    -0.83200
C118        C  0.64436408  0.20329516  0.76716177     0.97500
C119        C  0.69419531  0.15359490  0.76629521     1.05000
O120        O  0.67559008  0.18359331  0.85620444    -1.12200
O121        O  0.67329470  0.14864745  0.93244483    -0.74700
O122        O  0.66369990  0.13022116  0.86980075    -0.78100
O123        O  0.66828239  0.20759461  0.76866279    -0.78800
C124        C  0.66924966  0.12862965  0.91031326     0.96400
O125        O  0.62333494  0.16934068  0.88343174    -0.76800
O126        O  0.71921168  0.17845787  0.91446790    -0.82000
C127        C  0.68831045  0.24263073  0.88410462     0.99000
C128        C  0.73539858  0.19092651  0.89177385     1.05000
O129        O  0.68623448  0.23691414  0.84382936    -0.77600
C130        C  0.62283877  0.18529967  0.91468265     1.03300
N131        N  0.56421572  0.25516839  0.47964297    -0.03200
C132        C  0.54077256  0.24995353  0.46206350    -0.00600
C133        C  0.54021239  0.25689207  0.41823160    -0.23500
C134        C  0.56340574  0.26738696  0.40832521    -0.23700
C135        C  0.57790703  0.26590975  0.44593968    -0.00700
H136        H  0.52408071  0.25519294  0.39602766     0.13100
H137        H  0.56915204  0.27542722  0.37682730     0.13100
N138        N  0.76629323  0.06726992  0.49757521    -0.03200
C139        C  0.76912980  0.04240473  0.48436000    -0.00600
C140        C  0.79018970  0.04020130  0.45718242    -0.23500
C141        C  0.80096620  0.06392417  0.45363290    -0.23700
C142        C  0.78589541  0.08027480  0.47780537    -0.00700
H143        H  0.79629055  0.02332009  0.43990578     0.13100
H144        H  0.81686800  0.06915229  0.43268106     0.13100
Fe145      Fe  0.84024135  0.35157443  0.34432103     1.65800
Fe146      Fe  0.81501875  0.32262973  0.43445158     1.73200
Fe147      Fe  0.79442414  0.30655092  0.33249566     1.54400
O148        O  0.78110867  0.33850461  0.29938023    -0.81400
O149        O  0.81001464  0.28336444  0.43222794    -0.79700
O150        O  0.81632420  0.36157232  0.29261107    -0.83900
O151        O  0.85741499  0.32404171  0.30559117    -0.78700
O152        O  0.76323899  0.30982746  0.37360286    -0.80500
O153        O  0.85398939  0.31690999  0.43875012    -0.83200
C154        C  0.84655105  0.30768577  0.28116075     0.97500
C155        C  0.79346350  0.35664874  0.28162877     1.05000
O156        O  0.81664103  0.32662726  0.37044589    -1.12200
O157        O  0.81890429  0.36148937  0.44581807    -0.74700
O158        O  0.82383481  0.38028315  0.38032850    -0.78100
O159        O  0.82329607  0.30095675  0.28637772    -0.78800
C160        C  0.81844357  0.38104325  0.42089673     0.96400
O161        O  0.86829302  0.34616697  0.39179399    -0.76800
O162        O  0.77592100  0.32784673  0.43593351    -0.82000
C163        C  0.80681115  0.26675020  0.40264121     0.99000
C164        C  0.75858393  0.31936761  0.41091821     1.05000
O165        O  0.80436785  0.27240330  0.36230991    -0.77600
C166        C  0.87199979  0.33046272  0.42307364     1.03300
N167        N  0.92758102  0.26245854  0.99515254    -0.03200
C168        C  0.94933370  0.26933984  0.97258454    -0.00600
C169        C  0.94757529  0.26202973  0.92928888    -0.23500
C170        C  0.92420289  0.25102760  0.92396873    -0.23700
C171        C  0.91231548  0.25106119  0.96437058    -0.00700
H172        H  0.96189386  0.26477283  0.90389177     0.13100
H173        H  0.91660232  0.24350893  0.89365737     0.13100
N174        N  0.76919109  0.42722010  0.98277239    -0.03200
C175        C  0.78158107  0.44601129  0.95940023    -0.00600
C176        C  0.78358867  0.43921226  0.91588954    -0.23500
C177        C  0.77230376  0.41574644  0.91187275    -0.23700
C178        C  0.76330887  0.40882430  0.95292077    -0.00700
H179        H  0.79109885  0.45091109  0.88926964     0.13100
H180        H  0.76928349  0.40554123  0.88150335     0.13100
Fe181      Fe  0.15272556  0.34886121  0.84546931     1.65800
Fe182      Fe  0.18433377  0.32149116  0.93120491     1.73200
Fe183      Fe  0.19926990  0.30548981  0.82635406     1.54400
O184        O  0.17000613  0.30220450  0.78045062    -0.81400
O185        O  0.22322847  0.32582867  0.92612749    -0.79700
O186        O  0.13581150  0.32114672  0.80815337    -0.83900
O187        O  0.17530109  0.36033728  0.79231667    -0.78700
O188        O  0.18876888  0.27133859  0.85563306    -0.80500
O189        O  0.18243673  0.36073884  0.94206530    -0.83200
C190        C  0.19791343  0.35573504  0.77891398     0.97500
C191        C  0.14643199  0.30797531  0.77867797     1.05000
O192        O  0.17873117  0.32519781  0.86790579    -1.12200
O193        O  0.14604956  0.31577141  0.94392227    -0.74700
O194        O  0.12611456  0.33976054  0.89403163    -0.78100
O195        O  0.21168853  0.33828732  0.79563212    -0.78800
C196        C  0.12587427  0.32493506  0.92724419     0.96400
O197        O  0.16793214  0.37877256  0.88029764    -0.76800
O198        O  0.18813434  0.28212509  0.92665798    -0.82000
C199        C  0.23877602  0.31523031  0.90017287     0.99000
C200        C  0.18873056  0.26557945  0.89628822     1.05000
O201        O  0.23202411  0.30579124  0.86392623    -0.77600
C202        C  0.17832465  0.38017890  0.91771857     1.03300
N203        N  0.21796713  0.42190745  0.47754333    -0.03200
C204        C  0.20526167  0.44032508  0.45406254    -0.00600
C205        C  0.20185575  0.43258200  0.41131888    -0.23500
C206        C  0.21240486  0.40877294  0.40798368    -0.23700
C207        C  0.22237826  0.40267544  0.44860604    -0.00700
H208        H  0.19374510  0.44385138  0.38453318     0.13100
H209        H  0.21434786  0.39771160  0.37805728     0.13100
N210        N  0.06876971  0.26655056  0.48666970    -0.03200
C211        C  0.04549918  0.27003656  0.46691011    -0.00600
C212        C  0.04620722  0.26108098  0.42442471    -0.23500
C213        C  0.06997464  0.25109384  0.41771514    -0.23700
C214        C  0.08368234  0.25488957  0.45569224    -0.00700
H215        H  0.03066567  0.26126136  0.40098242     0.13100
H216        H  0.07671391  0.24212695  0.38798717     0.13100
Fe217      Fe  0.15715748  0.65292182  0.31371599     1.65800
Fe218      Fe  0.17793582  0.68150297  0.40571708     1.73200
Fe219      Fe  0.19968011  0.70082747  0.30642727     1.54400
O220        O  0.21759307  0.67018964  0.27638286    -0.81400
O221        O  0.18230959  0.72090815  0.40402513    -0.79700
O222        O  0.18374894  0.64566143  0.26416627    -0.83900
O223        O  0.13930366  0.67985695  0.27415851    -0.78700
O224        O  0.22918717  0.70166822  0.35293502    -0.80500
O225        O  0.13880228  0.68639691  0.40597006    -0.83200
C226        C  0.15001445  0.69634932  0.24932305     0.97500
C227        C  0.20691621  0.65178765  0.25654441     1.05000
O228        O  0.17833768  0.67843995  0.34193784    -1.12200
O229        O  0.17364370  0.64226389  0.41637407    -0.74700
O230        O  0.17423708  0.62471175  0.35052927    -0.78100
O231        O  0.17303428  0.70358133  0.25531656    -0.78800
C232        C  0.17546774  0.62278000  0.39191974     0.96400
O233        O  0.12726818  0.65622901  0.35946563    -0.76800
O234        O  0.21727874  0.67760454  0.41024443    -0.82000
C235        C  0.18213989  0.73809337  0.37434903     0.99000
C236        C  0.23393053  0.69072705  0.38955008     1.05000
O237        O  0.18300467  0.73261487  0.33393617    -0.77600
C238        C  0.12186048  0.67186765  0.38991362     1.03300
N239        N  0.06018404  0.76056478  0.97685013    -0.03200
C240        C  0.03740055  0.75774194  0.95529952    -0.00600
C241        C  0.03671573  0.77321086  0.91836179    -0.23500
C242        C  0.05970153  0.78532004  0.91555111    -0.23700
C243        C  0.07370390  0.77762240  0.95152387    -0.00700
H244        H  0.02140910  0.77438541  0.89441858     0.13100
H245        H  0.06596017  0.79789397  0.88912194     0.13100
N246        N  0.26889548  0.56920714  0.97985346    -0.03200
C247        C  0.26652642  0.54590861  0.96018563    -0.00600
C248        C  0.28238482  0.54466610  0.92389859    -0.23500
C249        C  0.29430105  0.56781672  0.91985999    -0.23700
C250        C  0.28599146  0.58256228  0.95434682    -0.00700
H251        H  0.28362978  0.52911596  0.90080939     0.13100
H252        H  0.30685168  0.57371596  0.89337574     0.13100
Fe253      Fe  0.83843176  0.66016437  0.82500311     1.65800
Fe254      Fe  0.80978865  0.68594876  0.91433451     1.73200
Fe255      Fe  0.79461437  0.70667528  0.81220658     1.54400
O256        O  0.82743695  0.72116618  0.78294083    -0.81400
O257        O  0.77059559  0.69237919  0.90979885    -0.79700
O258        O  0.84935629  0.68516707  0.77524467    -0.83900
O259        O  0.81087208  0.64432379  0.78443808    -0.78700
O260        O  0.79513016  0.73714846  0.85510711    -0.80500
O261        O  0.80313536  0.64702281  0.91899344    -0.83200
C262        C  0.79593425  0.65619137  0.75840534     0.97500
C263        C  0.84570363  0.70862431  0.76604829     1.05000
O264        O  0.81426150  0.68425140  0.85063135    -1.12200
O265        O  0.84872057  0.68143425  0.92706325    -0.74700
O266        O  0.86752021  0.67496252  0.86226664    -0.78100
O267        O  0.79050404  0.67963156  0.76345057    -0.78800
C268        C  0.86838354  0.68099759  0.90242751     0.96400
O269        O  0.83134905  0.63171370  0.87158255    -0.76800
O270        O  0.81552758  0.72490640  0.91575433    -0.82000
C271        C  0.75422161  0.69412588  0.87913216     0.99000
C272        C  0.80486165  0.74189851  0.89223005     1.05000
O273        O  0.76082272  0.69365440  0.83912109    -0.77600
C274        C  0.81572696  0.62850733  0.90312393     1.03300
N275        N  0.74079286  0.57175923  0.47896424    -0.03200
C276        C  0.74465466  0.54844459  0.46029521    -0.00600
C277        C  0.73157059  0.54674148  0.42112330    -0.23500
C278        C  0.71982662  0.56970522  0.41430966    -0.23700
C279        C  0.72535664  0.58464352  0.45012211    -0.00700
H280        H  0.73168078  0.53077159  0.39871928     0.13100
H281        H  0.70878950  0.57516858  0.38576852     0.13100
N282        N  0.91990363  0.72106753  0.47423308    -0.03200
C283        C  0.93835573  0.70986939  0.44896012    -0.00600
C284        C  0.93005205  0.70854449  0.40598063    -0.23500
C285        C  0.90625925  0.71948685  0.40423596    -0.23700
C286        C  0.90033054  0.72699178  0.44625133    -0.00700
H287        H  0.94110125  0.70201205  0.37804580     0.13100
H288        H  0.89488433  0.72268290  0.37500788     0.13100
C289        C  0.86290240  0.72060488  0.73259861     0.01600
C290        C  0.88854380  0.71206798  0.72924386     0.04500
C291        C  0.90221835  0.71545524  0.68987138    -0.11600
C292        C  0.89086129  0.72846270  0.65446442     0.23800
C293        C  0.86719083  0.74081060  0.66034741    -0.12200
C294        C  0.85315911  0.73703459  0.69943325     0.05200
C295        C  0.90125086  0.72517093  0.60951624     0.27600
C296        C  0.92032011  0.74143522  0.59232915    -0.12900
C297        C  0.92871720  0.73852334  0.54859663     0.05700
C298        C  0.91726655  0.72003048  0.52147688    -0.08800
C299        C  0.90012523  0.70222578  0.54049317     0.06500
C300        C  0.89189349  0.70497604  0.58399869    -0.13200
Br301      Br  0.85321459  0.76103622  0.61291306    -0.05300
Br302      Br  0.90519417  0.69566067  0.77842938     0.00400
Br303      Br  0.95671682  0.75884738  0.52733061     0.00800
Br304      Br  0.86718383  0.68131659  0.60857633    -0.03600
Br305      Br  0.82016940  0.75323720  0.70515213     0.00900
Br306      Br  0.93558673  0.70029007  0.68281966    -0.02900
Br307      Br  0.93425827  0.76802533  0.62849718    -0.03700
Br308      Br  0.88888417  0.67299490  0.50805190     0.00200
C309        C  0.78513113  0.64279208  0.71965243     0.01600
C310        C  0.78493801  0.65495302  0.67789871     0.04500
C311        C  0.77556973  0.64196903  0.64103843    -0.11600
C312        C  0.76836952  0.61611675  0.64458053     0.23800
C313        C  0.76835950  0.60395944  0.68594996    -0.12200
C314        C  0.77527592  0.61773113  0.72362301     0.05200
C315        C  0.76142056  0.60186978  0.60432182     0.27600
C316        C  0.73564644  0.59740304  0.59396036    -0.12900
C317        C  0.72915640  0.58602140  0.55385010     0.05700
C318        C  0.74824233  0.58016153  0.52246862    -0.08800
C319        C  0.77426892  0.58354234  0.53420264     0.06500
C320        C  0.78071114  0.59413697  0.57507029    -0.13200
Br321      Br  0.75951998  0.56825128  0.69077508    -0.05300
Br322      Br  0.79869568  0.68888383  0.66949549     0.00400
Br323      Br  0.69409426  0.57677266  0.54396521     0.00800
Br324      Br  0.81615695  0.59889273  0.59104043    -0.03600
Br325      Br  0.76824439  0.60326515  0.78059349     0.00900
Br326      Br  0.77273801  0.65945706  0.58513522    -0.02900
Br327      Br  0.70914748  0.60763513  0.63437216    -0.03700
Br328      Br  0.80172904  0.57519976  0.49495480     0.00200
C329        C  0.01656137  0.73888252  0.96285481     0.01600
C330        C  0.01130101  0.72133450  0.92881708     0.04500
C331        C  0.98717785  0.70968491  0.92583551    -0.11600
C332        C  0.96811245  0.71517477  0.95693302     0.23800
C333        C  0.97388332  0.73087649  0.99291133    -0.12200
C334        C  0.99798952  0.74292803  0.99567244     0.05200
C335        C  0.94137057  0.70708773  0.94809595     0.27600
C336        C  0.92523392  0.72351173  0.92392514    -0.12900
C337        C  0.90116432  0.71490842  0.90999756     0.05700
C338        C  0.89301804  0.68988775  0.92010928    -0.08800
C339        C  0.90874123  0.67367133  0.94536353     0.06500
C340        C  0.93291530  0.68230135  0.95945035    -0.13200
Br341      Br  0.94790432  0.73734146  0.03634300    -0.05300
Br342      Br  0.03643397  0.71480129  0.88351221     0.00400
Br343      Br  0.87938310  0.73728612  0.87620234     0.00800
Br344      Br  0.95491028  0.66011187  0.99307060    -0.03600
Br345      Br  0.00420926  0.76724121  0.04133618     0.00900
Br346      Br  0.97932062  0.68801674  0.87664712    -0.02900
Br347      Br  0.93655224  0.75754124  0.90839545    -0.03700
Br348      Br  0.89757258  0.63939672  0.95875001     0.00200
C349        C  0.06800906  0.75098652  0.01988229     0.01600
C350        C  0.07178838  0.72457435  0.02857476     0.04500
C351        C  0.08393121  0.71645464  0.06768515    -0.11600
C352        C  0.09284042  0.73445044  0.09826624     0.23800
C353        C  0.08792177  0.76056757  0.09087267    -0.12200
C354        C  0.07463340  0.76858027  0.05302781     0.05200
C355        C  0.10773385  0.72582867  0.13761557     0.27600
C356        C  0.09644833  0.72540764  0.17973283    -0.12900
C357        C  0.11062234  0.71700470  0.21652662     0.05700
C358        C  0.13554581  0.70702259  0.21114844    -0.08800
C359        C  0.14651868  0.70690463  0.16868164     0.06500
C360        C  0.13316852  0.71736925  0.13264337    -0.13200
Br361      Br  0.10051099  0.78560425  0.13165282    -0.05300
Br362      Br  0.06157117  0.69893292  0.98745303     0.00400
Br363      Br  0.09631781  0.72063347  0.27448325     0.00800
Br364      Br  0.14981271  0.72035683  0.07619845    -0.03600
Br365      Br  0.06360027  0.80353601  0.04875254     0.00900
Br366      Br  0.08918752  0.68046662  0.07913677    -0.02900
Br367      Br  0.06132161  0.73586770  0.18687004    -0.03700
Br368      Br  0.17888631  0.69034570  0.15849604     0.00200
C369        C  0.26060730  0.57649623  0.02356581     0.01600
C370        C  0.23473188  0.58211037  0.03323816     0.04500
C371        C  0.22817087  0.59382118  0.07328033    -0.11600
C372        C  0.24700394  0.59841055  0.10529233     0.23800
C373        C  0.27225922  0.59032105  0.09767378    -0.12200
C374        C  0.27900644  0.57948370  0.05711885     0.05200
C375        C  0.23999796  0.61135656  0.14712470     0.27600
C376        C  0.24553547  0.63746243  0.15303189    -0.12900
C377        C  0.23662082  0.65037269  0.19058239     0.05700
C378        C  0.22114756  0.63739209  0.22192143    -0.08800
C379        C  0.21740259  0.61069697  0.21734171     0.06500
C380        C  0.22698520  0.59778616  0.18037363    -0.13200
Br381      Br  0.29757220  0.59406286  0.14312572    -0.05300
Br382      Br  0.20774675  0.57313670  0.99355962     0.00400
Br383      Br  0.24504882  0.68609730  0.19707000     0.00800
Br384      Br  0.22217703  0.56136621  0.17471952    -0.03600
Br385      Br  0.31311791  0.56659135  0.04927292     0.00900
Br386      Br  0.19334060  0.60437236  0.08404489    -0.02900
Br387      Br  0.26455498  0.65575682  0.10843933    -0.03700
Br388      Br  0.19998300  0.59119209  0.26228971     0.00200
C389        C  0.96609512  0.70627668  0.45927015     0.01600
C390        C  0.98390058  0.72341024  0.43977790     0.04500
C391        C  0.00990609  0.71675309  0.43606791    -0.11600
C392        C  0.01843251  0.69260137  0.45036815     0.23800
C393        C  0.00128521  0.67610603  0.47231970    -0.12200
C394        C  0.97526099  0.68295209  0.47695264     0.05200
C395        C  0.04450711  0.68374559  0.43736237     0.27600
C396        C  0.04859062  0.67452150  0.39465321    -0.12900
C397        C  0.07358030  0.66952971  0.37938592     0.05700
C398        C  0.09496753  0.67355009  0.40715862    -0.08800
C399        C  0.09035389  0.68031026  0.45156000     0.06500
C400        C  0.06534653  0.68599290  0.46610030    -0.13200
Br401      Br  0.01322270  0.64326305  0.49292970    -0.05300
Br402      Br  0.97243198  0.75513005  0.41358105     0.00400
Br403      Br  0.07757913  0.65798623  0.31972123     0.00800
Br404      Br  0.05950692  0.69762084  0.52515101    -0.03600
Br405      Br  0.95218163  0.65908258  0.50400011     0.00900
Br406      Br  0.03378109  0.73993392  0.40814371    -0.02900
Br407      Br  0.01957923  0.66955250  0.35650954    -0.03700
Br408      Br  0.11772459  0.68022867  0.49404989     0.00200
C409        C  0.17871737  0.59686729  0.41198162     0.01600
C410        C  0.16974694  0.57502712  0.38948805     0.04500
C411        C  0.17580385  0.55045968  0.40495479    -0.11600
C412        C  0.18663055  0.54712681  0.44694616     0.23800
C413        C  0.19288642  0.56873426  0.47191981    -0.12200
C414        C  0.19083089  0.59340094  0.45326958     0.05200
C415        C  0.19167056  0.52075441  0.46347421     0.27600
C416        C  0.17104400  0.50376653  0.46876721    -0.12900
C417        C  0.17519663  0.47731269  0.46572155     0.05700
C418        C  0.20040772  0.46732524  0.46688113    -0.08800
C419        C  0.22116689  0.48469603  0.46779000     0.06500
C420        C  0.21684720  0.51122762  0.46456894    -0.13200
Br421      Br  0.20389475  0.56446871  0.53190120    -0.05300
Br422      Br  0.14687419  0.57780606  0.33984045     0.00400
Br423      Br  0.14641483  0.45655860  0.44899735     0.00800
Br424      Br  0.24546456  0.53418955  0.45597067    -0.03600
Br425      Br  0.20649259  0.62154106  0.48383170     0.00900
Br426      Br  0.16989912  0.52141882  0.36734674    -0.02900
Br427      Br  0.13672041  0.51709526  0.47424571    -0.03700
Br428      Br  0.25574751  0.47266440  0.46352710     0.00200
C429        C  0.07672298  0.27399652  0.53038902     0.01600
C430        C  0.09761717  0.29092342  0.53582139     0.04500
C431        C  0.10785879  0.29537156  0.57765324    -0.11600
C432        C  0.09635293  0.28435264  0.61496883     0.23800
C433        C  0.07448945  0.26899952  0.61040071    -0.12200
C434        C  0.06499817  0.26336646  0.56836556     0.05200
C435        C  0.10721995  0.28925466  0.65903608     0.27600
C436        C  0.12340359  0.27111977  0.67904787    -0.12900
C437        C  0.13519421  0.27657334  0.71939160     0.05700
C438        C  0.13135591  0.30057088  0.73947104    -0.08800
C439        C  0.11461869  0.31853633  0.71944019     0.06500
C440        C  0.10229741  0.31261209  0.67985927    -0.13200
Br441      Br  0.05787811  0.25543729  0.66224196    -0.05300
Br442      Br  0.11132691  0.30994214  0.48700682     0.00400
Br443      Br  0.15618406  0.25074777  0.74707568     0.00800
Br444      Br  0.07912532  0.33683435  0.65296810    -0.03600
Br445      Br  0.03728996  0.23945888  0.56422609     0.00900
Br446      Br  0.13800977  0.31642497  0.58407160    -0.02900
Br447      Br  0.12991838  0.23904528  0.65022581    -0.03700
Br448      Br  0.10998784  0.35242940  0.74303995     0.00200
C449        C  0.20767427  0.36981878  0.74005298     0.01600
C450        C  0.20493422  0.39662177  0.73663924     0.04500
C451        C  0.21024151  0.40919476  0.69660571    -0.11600
C452        C  0.21852205  0.39507776  0.66009566     0.23800
C453        C  0.22292977  0.36862642  0.66431924    -0.12200
C454        C  0.21730619  0.35595485  0.70394116     0.05200
C455        C  0.21850462  0.40668743  0.61556659     0.27600
C456        C  0.19534094  0.40777404  0.59244033    -0.12900
C457        C  0.19527235  0.41391934  0.54755844     0.05700
C458        C  0.21841278  0.41902146  0.52489331    -0.08800
C459        C  0.24172571  0.41777105  0.54852900     0.06500
C460        C  0.24160202  0.41242468  0.59394795    -0.13200
Br461      Br  0.23458590  0.34929194  0.61431588    -0.05300
Br462      Br  0.19362224  0.41613308  0.78650165     0.00400
Br463      Br  0.16367430  0.41023153  0.51633137     0.00800
Br464      Br  0.27317737  0.41122579  0.62659724    -0.03600
Br465      Br  0.22000045  0.31909243  0.70610076     0.00900
Br466      Br  0.20462440  0.44547219  0.69057903    -0.02900
Br467      Br  0.16379365  0.39810915  0.62158128    -0.03700
Br468      Br  0.27424197  0.42052510  0.51950351     0.00200
C469        C  0.24622498  0.52619809  0.96678907     0.01600
C470        C  0.24819677  0.50750049  0.00021586     0.04500
C471        C  0.23380615  0.48469375  0.99777793    -0.11600
C472        C  0.21794227  0.48011177  0.96133387     0.23800
C473        C  0.21473061  0.49936199  0.92935348    -0.12200
C474        C  0.22849393  0.52238486  0.93233141     0.05200
C475        C  0.20760545  0.45402087  0.95318823     0.27600
C476        C  0.22380599  0.43536858  0.93491053    -0.12900
C477        C  0.21414974  0.41108131  0.92463767     0.05700
C478        C  0.18813656  0.40530435  0.93172422    -0.08800
C479        C  0.17175758  0.42402205  0.94916411     0.06500
C480        C  0.18155444  0.44823760  0.96053182    -0.13200
Br481      Br  0.19332714  0.49312311  0.87901745    -0.05300
Br482      Br  0.27241446  0.51161607  0.04688412     0.00400
Br483      Br  0.23636511  0.38608772  0.89843957     0.00800
Br484      Br  0.15933812  0.47370622  0.98531990    -0.03600
Br485      Br  0.22420595  0.54809796  0.88698663     0.00900
Br486      Br  0.23725404  0.45863164  0.04246053    -0.02900
Br487      Br  0.25908040  0.44351639  0.92193236    -0.03700
Br488      Br  0.13589949  0.41656252  0.95628631     0.00200
C489        C  0.78694224  0.47284751  0.97312118     0.01600
C490        C  0.76646552  0.49054231  0.97557261     0.04500
C491        C  0.77122489  0.51707119  0.97640971    -0.11600
C492        C  0.79636457  0.52631397  0.97271284     0.23800
C493        C  0.81689215  0.50901723  0.97336103    -0.12200
C494        C  0.81228154  0.48255195  0.97104933     0.05200
C495        C  0.80097871  0.55274564  0.95599064     0.27600
C496        C  0.80510957  0.55636784  0.91071399    -0.12900
C497        C  0.81196870  0.58053649  0.89399120     0.05700
C498        C  0.81188568  0.60219469  0.92171047    -0.08800
C499        C  0.80783486  0.59839110  0.96740142     0.06500
C500        C  0.80283906  0.57367426  0.98440420    -0.13200
Br501      Br  0.85143478  0.52215332  0.97186509    -0.05300
Br502      Br  0.73189361  0.47957764  0.96588035     0.00400
Br503      Br  0.82281988  0.58259587  0.83347402     0.00800
Br504      Br  0.79902161  0.56812989  0.04665787    -0.03600
Br505      Br  0.84060594  0.46110100  0.95472939     0.00900
Br506      Br  0.74320982  0.54108679  0.97763273    -0.02900
Br507      Br  0.80104109  0.52788642  0.87118806    -0.03700
Br508      Br  0.81163001  0.62631111  0.00790344     0.00200
C509        C  0.97288502  0.28270068  0.98809478     0.01600
C510        C  0.98079532  0.30520155  0.96535940     0.04500
C511        C  0.00633463  0.31350685  0.96736438    -0.11600
C512        C  0.02472851  0.29866680  0.98934563     0.23800
C513        C  0.01686059  0.27743242  0.01462247    -0.12200
C514        C  0.99097717  0.26957429  0.01433627     0.05200
C515        C  0.05216903  0.30258952  0.97780211     0.27600
C516        C  0.06134637  0.29255460  0.93797036    -0.12900
C517        C  0.08547150  0.29986503  0.92175517     0.05700
C518        C  0.10091218  0.31685261  0.94567706    -0.08800
C519        C  0.09255611  0.32547294  0.98700539     0.06500
C520        C  0.06807384  0.31856143  0.00285523    -0.13200
Br521      Br  0.04217991  0.25776771  0.04599056    -0.05300
Br522      Br  0.95795018  0.32297561  0.92559909     0.00400
Br523      Br  0.09737926  0.28636545  0.86667190     0.00800
Br524      Br  0.05588030  0.33148182  0.05800921    -0.03600
Br525      Br  0.98168865  0.23850096  0.04428887     0.00900
Br526      Br  0.01704222  0.34383628  0.93566583    -0.02900
Br527      Br  0.04036212  0.26924591  0.90490315    -0.03700
Br528      Br  0.11424967  0.34754857  0.02086703     0.00200
C529        C  0.86072809  0.29733029  0.24294554     0.01600
C530        C  0.84997150  0.29969143  0.20065349     0.04500
C531        C  0.86309059  0.29052893  0.16383703    -0.11600
C532        C  0.88816046  0.28110886  0.16810075     0.23800
C533        C  0.89914799  0.27870169  0.21013446    -0.12200
C534        C  0.88505119  0.28590593  0.24764743     0.05200
C535        C  0.90297454  0.27563706  0.12751856     0.27600
C536        C  0.90504005  0.25057181  0.11177955    -0.12900
C537        C  0.91492411  0.24612637  0.06944329     0.05700
C538        C  0.92131284  0.26683683  0.04110683    -0.08800
C539        C  0.91987441  0.29195819  0.05804115     0.06500
C540        C  0.91162364  0.29615785  0.10138694    -0.13200
Br541      Br  0.93364613  0.26622599  0.21604053    -0.05300
Br542      Br  0.81837511  0.31777939  0.19163040     0.00400
Br543      Br  0.92044016  0.21141131  0.05208363     0.00800
Br544      Br  0.91038200  0.33043016  0.12461569    -0.03600
Br545      Br  0.89841992  0.27878861  0.30524598     0.00900
Br546      Br  0.84686981  0.29140779  0.10690927    -0.02900
Br547      Br  0.89295881  0.22244624  0.14761494    -0.03700
Br548      Br  0.92577308  0.32138138  0.02158412     0.00200
C549        C  0.78176893  0.37181089  0.24502613     0.01600
C550        C  0.76699275  0.35963488  0.21224512     0.04500
C551        C  0.76287035  0.37195974  0.17159869    -0.11600
C552        C  0.77138937  0.39722268  0.16468913     0.23800
C553        C  0.78261233  0.41065662  0.19946120    -0.12200
C554        C  0.78811208  0.39797860  0.23929041     0.05200
C555        C  0.77112011  0.40843518  0.11964285     0.27600
C556        C  0.79358714  0.40778402  0.09426044    -0.12900
C557        C  0.79314839  0.41567076  0.05006519     0.05700
C558        C  0.76994014  0.42322608  0.02989852    -0.08800
C559        C  0.74734216  0.42343893  0.05555040     0.06500
C560        C  0.74822427  0.41722552  0.10065350    -0.13200
Br561      Br  0.79159026  0.44615078  0.19128058    -0.05300
Br562      Br  0.75304266  0.32572233  0.22088632     0.00400
Br563      Br  0.82383251  0.41169542  0.01598763     0.00800
Br564      Br  0.71795084  0.41991577  0.13659730    -0.03600
Br565      Br  0.80390061  0.41694933  0.28604481     0.00900
Br566      Br  0.74755150  0.35343314  0.12377209    -0.02900
Br567      Br  0.82463786  0.39390106  0.11930308    -0.03700
Br568      Br  0.71464176  0.42963649  0.02915360     0.00200
C569        C  0.80990978  0.40543165  0.43941103     0.01600
C570        C  0.82493443  0.41853160  0.47023822     0.04500
C571        C  0.81687389  0.44251112  0.48576626    -0.11600
C572        C  0.79379355  0.45319199  0.47053340     0.23800
C573        C  0.77815058  0.43934813  0.44159947    -0.12200
C574        C  0.78624497  0.41557270  0.42600718     0.05200
C575        C  0.78740355  0.48028321  0.47866348     0.27600
C576        C  0.76885750  0.48679581  0.51016675    -0.12900
C577        C  0.75657382  0.51075123  0.50780773     0.05700
C578        C  0.76278159  0.52805248  0.47364141    -0.08800
C579        C  0.78301020  0.52210080  0.44443905     0.06500
C580        C  0.79566865  0.49857639  0.44779295    -0.13200
Br581      Br  0.74609561  0.45359550  0.42156654    -0.05300
Br582      Br  0.85715409  0.40431670  0.48894068     0.00400
Br583      Br  0.72893276  0.51795450  0.54746454     0.00800
Br584      Br  0.82237190  0.49001769  0.40651025    -0.03600
Br585      Br  0.76483966  0.39684638  0.38614278     0.00900
Br586      Br  0.83772884  0.46132563  0.52624050    -0.02900
Br587      Br  0.75851996  0.46166973  0.55329041    -0.03700
Br588      Br  0.79172288  0.54484531  0.39621285     0.00200
C589        C  0.89832096  0.32746818  0.44130154     0.01600
C590        C  0.91997993  0.32774826  0.41320415     0.04500
C591        C  0.94404126  0.32027310  0.42932739    -0.11600
C592        C  0.94714578  0.31390513  0.47395492     0.23800
C593        C  0.92639635  0.31642481  0.50300158    -0.12200
C594        C  0.90202179  0.32314334  0.48682984     0.05200
C595        C  0.97168228  0.30218801  0.48830212     0.27600
C596        C  0.97444955  0.27556530  0.48526700    -0.12900
C597        C  0.99897051  0.26465223  0.48322757     0.05700
C598        C  0.02113671  0.28030189  0.48542234    -0.08800
C599        C  0.01809286  0.30673156  0.49335276     0.06500
C600        C  0.99337023  0.31754523  0.49529623    -0.13200
Br601      Br  0.93147835  0.30993124  0.56466957    -0.05300
Br602      Br  0.91753981  0.33781088  0.35224488     0.00400
Br603      Br  0.00169762  0.22840394  0.47174331     0.00800
Br604      Br  0.98893476  0.35383184  0.50295687    -0.03600
Br605      Br  0.87422560  0.32778002  0.52781075     0.00900
Br606      Br  0.97270636  0.31713617  0.38949839    -0.02900
Br607      Br  0.94442707  0.25438219  0.47878691    -0.03700
Br608      Br  0.04718762  0.32909910  0.49444134     0.00200
C609        C  0.78771593  0.10840879  0.47151317     0.01600
C610        C  0.79683301  0.12451643  0.50488883     0.04500
C611        C  0.79959768  0.15097010  0.49689553    -0.11600
C612        C  0.79489678  0.16112085  0.45471954     0.23800
C613        C  0.78678990  0.14489263  0.42090733    -0.12200
C614        C  0.78279394  0.11879205  0.42936256     0.05200
C615        C  0.79838083  0.18879535  0.44515504     0.35600
C616        C  0.77671224  0.20441416  0.43920698    -0.12900
C617        C  0.77958026  0.22948935  0.42313370     0.05700
C618        C  0.80421081  0.23981363  0.41640268    -0.08800
C619        C  0.82595285  0.22468211  0.42446615     0.06500
C620        C  0.82304338  0.19894661  0.43756134    -0.13200
Br621      Br  0.78169095  0.15843036  0.36241660    -0.05300
Br622      Br  0.80800204  0.11027972  0.55990357     0.00400
Br623      Br  0.74963069  0.24924153  0.40858637     0.00800
Br624      Br  0.85270874  0.17732836  0.44336801    -0.03600
Br625      Br  0.77017006  0.09742197  0.38266335     0.00900
Br626      Br  0.81009704  0.17338027  0.54339218    -0.02900
Br627      Br  0.74305310  0.19121618  0.45264847    -0.03700
Br628      Br  0.85956959  0.23913334  0.41624767     0.00200
C629        C  0.60456972  0.27558062  0.44748050     0.01600
C630        C  0.61074896  0.29693467  0.47339693     0.04500
C631        C  0.63575655  0.30682132  0.47314272    -0.11600
C632        C  0.65442014  0.29602021  0.44579043     0.23800
C633        C  0.64814713  0.27544700  0.41842824    -0.12200
C634        C  0.62319366  0.26557713  0.41846760     0.05200
C635        C  0.68039393  0.30704456  0.44324597     0.27600
C636        C  0.68664614  0.32363322  0.40830850    -0.12900
C637        C  0.71238341  0.32901646  0.39891850     0.05700
C638        C  0.73181745  0.31903501  0.42613588    -0.08800
C639        C  0.72520252  0.30499311  0.46430160     0.06500
C640        C  0.69951089  0.29842116  0.47212575    -0.13200
Br641      Br  0.67384126  0.26118301  0.38003967    -0.05300
Br642      Br  0.58438445  0.31538667  0.50365052     0.00400
Br643      Br  0.72086861  0.34896806  0.34742947     0.00800
Br644      Br  0.69055379  0.27584341  0.52012986    -0.03600
Br645      Br  0.61472842  0.23923701  0.37669491     0.00900
Br646      Br  0.64437675  0.33589936  0.50865899    -0.02900
Br647      Br  0.65987265  0.33755507  0.37179182    -0.03700
Br648      Br  0.75131303  0.29232550  0.50352906     0.00200
C649        C  0.76207476  0.19456356  0.90838387     0.01600
C650        C  0.78280994  0.19658469  0.87854851     0.04500
C651        C  0.80695915  0.20508687  0.89286409    -0.11600
C652        C  0.81116762  0.21041683  0.93752874     0.23800
C653        C  0.79116208  0.20676778  0.96789279    -0.12200
C654        C  0.76663011  0.19933913  0.95351392     0.05200
C655        C  0.83658188  0.22018308  0.95221505     0.27600
C656        C  0.85778793  0.20366971  0.95361757    -0.12900
C657        C  0.88255994  0.21361557  0.95934227     0.05700
C658        C  0.88620137  0.23981829  0.96940611    -0.08800
C659        C  0.86454809  0.25592358  0.97156693     0.06500
C660        C  0.84001219  0.24634463  0.96142612    -0.13200
Br661      Br  0.79744548  0.21269422  0.02935342    -0.05300
Br662      Br  0.77874796  0.18696966  0.81796393     0.00400
Br663      Br  0.91142811  0.19153929  0.94755166     0.00800
Br664      Br  0.81139746  0.26948677  0.95596637    -0.03600
Br665      Br  0.73928128  0.19786590  0.99620837     0.00900
Br666      Br  0.83415627  0.21046923  0.85076678    -0.02900
Br667      Br  0.85291300  0.16746274  0.94513854    -0.03700
Br668      Br  0.86855800  0.29182222  0.98263868     0.00200
C669        C  0.69244155  0.26960736  0.89633440     0.01600
C670        C  0.67823508  0.28075983  0.93074921     0.04500
C671        C  0.68497781  0.30510361  0.94653551    -0.11600
C672        C  0.70578786  0.31835763  0.92782447     0.23800
C673        C  0.71923074  0.30773127  0.89226299    -0.12200
C674        C  0.71279692  0.28337279  0.87682556     0.05200
C675        C  0.71520224  0.34270540  0.94646212     0.27600
C676        C  0.70687670  0.36609865  0.92873157    -0.12900
C677        C  0.72133394  0.38842397  0.93540905     0.05700
C678        C  0.74483281  0.38728022  0.95854036    -0.08800
C679        C  0.75215723  0.36389203  0.97840077     0.06500
C680        C  0.73663533  0.34207376  0.97416398    -0.13200
Br681      Br  0.74741125  0.32627231  0.86586593    -0.05300
Br682      Br  0.64949441  0.26278854  0.95620735     0.00400
Br683      Br  0.70998556  0.42001811  0.90865439     0.00800
Br684      Br  0.74607611  0.31023765  0.00227947    -0.03600
Br685      Br  0.73379858  0.26811673  0.83181581     0.00900
Br686      Br  0.66636892  0.32009082  0.99448810    -0.02900
Br687      Br  0.67702895  0.36682084  0.89166416    -0.03700
Br688      Br  0.78524277  0.35955066  0.00430465     0.00200
C689        C  0.75167450  0.07666067  0.53482928     0.01600
C690        C  0.73341213  0.09659109  0.53006545     0.04500
C691        C  0.72214555  0.10786355  0.56736225    -0.11600
C692        C  0.72932813  0.09991935  0.60974181     0.23800
C693        C  0.74714036  0.08006790  0.61485739    -0.12200
C694        C  0.75845800  0.06876353  0.57783921     0.05200
C695        C  0.71989150  0.11379928  0.64908842     0.27600
C696        C  0.73274592  0.13577681  0.66337334    -0.12900
C697        C  0.72422876  0.14902164  0.70073622     0.05700
C698        C  0.70350095  0.13934526  0.72647010    -0.08800
C699        C  0.69078063  0.11684394  0.71162153     0.06500
C700        C  0.69869273  0.10465430  0.67274252    -0.13200
Br701      Br  0.75724854  0.06962616  0.67322532    -0.05300
Br702      Br  0.72449676  0.11022362  0.47344038     0.00400
Br703      Br  0.74036175  0.18152950  0.71263027     0.00800
Br704      Br  0.68050004  0.07520052  0.65105823    -0.03600
Br705      Br  0.78650219  0.04575294  0.58727915     0.00900
Br706      Br  0.69741184  0.13504323  0.56094437    -0.02900
Br707      Br  0.76228931  0.14774249  0.63105161    -0.03700
Br708      Br  0.66261268  0.10143884  0.74336513     0.00200
C709        C  0.57385464  0.24888980  0.52317770     0.01600
C710        C  0.59491403  0.23206996  0.52796449     0.04500
C711        C  0.60591822  0.22754433  0.56935610    -0.11600
C712        C  0.59506444  0.23829336  0.60720225     0.23800
C713        C  0.57372122  0.25452985  0.60312867    -0.12200
C714        C  0.56332271  0.26005851  0.56138735     0.05200
C715        C  0.60526682  0.23087053  0.65118242     0.27600
C716        C  0.59978916  0.20640297  0.66840753    -0.12900
C717        C  0.61245719  0.19741619  0.70622630     0.05700
C718        C  0.62947505  0.21354920  0.72918317    -0.08800
C719        C  0.63366973  0.23873015  0.71327229     0.06500
C720        C  0.62209062  0.24709344  0.67389279    -0.13200
Br721      Br  0.55875491  0.26912575  0.65512426    -0.05300
Br722      Br  0.60734163  0.21266699  0.47910143     0.00400
Br723      Br  0.60846010  0.16193218  0.72290177     0.00800
Br724      Br  0.63006493  0.28039843  0.64985435    -0.03600
Br725      Br  0.53514448  0.28349277  0.55778083     0.00900
Br726      Br  0.63607283  0.20636553  0.57450540    -0.02900
Br727      Br  0.57542888  0.18481348  0.63883573    -0.03700
Br728      Br  0.65501143  0.26211202  0.74541820     0.00200
C729        C  0.61568053  0.76670094  0.94952515     0.01600
C730        C  0.61186533  0.74012938  0.94346146     0.04500
C731        C  0.63286975  0.72368129  0.93714495    -0.11600
C732        C  0.65786026  0.73340084  0.93878076     0.23800
C733        C  0.66187866  0.75925657  0.94877797    -0.12200
C734        C  0.64102044  0.77609605  0.95142133     0.05200
C735        C  0.67959519  0.71850047  0.92095254     0.27600
C736        C  0.69379583  0.70180184  0.94768186    -0.12900
C737        C  0.71693752  0.69139291  0.93210363     0.05700
C738        C  0.72690983  0.69917335  0.89070364    -0.08800
C739        C  0.71158546  0.71497275  0.86309868     0.06500
C740        C  0.68763270  0.72359456  0.87775036    -0.13200
Br741      Br  0.69643965  0.77195220  0.95418069    -0.05300
Br742      Br  0.57812513  0.72629521  0.93702825     0.00400
Br743      Br  0.73450856  0.66642941  0.96803640     0.00800
Br744      Br  0.66614740  0.74403516  0.83955722    -0.03600
Br745      Br  0.64813955  0.81207747  0.94985850     0.00900
Br746      Br  0.62760952  0.68835755  0.92164005    -0.02900
Br747      Br  0.68201614  0.69437742  0.00639074    -0.03700
Br748      Br  0.72361283  0.72807596  0.80714572     0.00200
C749        C  0.67203101  0.10271696  0.93235308     0.01600
C750        C  0.66660475  0.07981765  0.90910492     0.04500
C751        C  0.67448030  0.05591873  0.92591319    -0.11600
C752        C  0.68574458  0.05406449  0.96762405     0.23800
C753        C  0.68733100  0.07586760  0.99390210    -0.12200
C754        C  0.68112804  0.10018171  0.97646701     0.05200
C755        C  0.69930671  0.03012937  0.98053443     0.27600
C756        C  0.68572282  0.00803272  0.99343882    -0.12900
C757        C  0.69790642  0.98393008  0.99306007     0.05700
C758        C  0.72400283  0.98206954  0.98124982    -0.08800
C759        C  0.73823079  0.00488288  0.97454561     0.06500
C760        C  0.72587036  0.02868183  0.97365798    -0.13200
Br761      Br  0.69934766  0.07202422  0.05347945    -0.05300
Br762      Br  0.64733712  0.07974618  0.85510104     0.00400
Br763      Br  0.67770859  0.95371777  0.00275760     0.00800
Br764      Br  0.74495502  0.05909165  0.95791690    -0.03600
Br765      Br  0.68595360  0.12905017  0.01490509     0.00900
Br766      Br  0.67124333  0.02558726  0.89048063    -0.02900
Br767      Br  0.64990890  0.01078128  0.00784361    -0.03700
Br768      Br  0.77440287  0.00362635  0.96075390     0.00200
C769        C  0.80186614  0.76794307  0.90955128     0.01600
C770        C  0.78577725  0.77194430  0.94614858     0.04500
C771        C  0.77932292  0.79692847  0.95866855    -0.11600
C772        C  0.78883281  0.81792689  0.93464392     0.23800
C773        C  0.80587415  0.81403671  0.89946844    -0.12200
C774        C  0.81209298  0.78907359  0.88649781     0.05200
C775        C  0.77777514  0.84361580  0.94153863     0.27600
C776        C  0.75668885  0.85116176  0.91606594    -0.12900
C777        C  0.74730143  0.87619425  0.91878791     0.05700
C778        C  0.75820344  0.89362986  0.94884793    -0.08800
C779        C  0.77929896  0.88588050  0.97452020     0.06500
C780        C  0.78885552  0.86079467  0.97120846    -0.13200
Br781      Br  0.81934900  0.84304401  0.86745518    -0.05300
Br782      Br  0.77001151  0.74333173  0.97604991     0.00400
Br783      Br  0.71995577  0.88638832  0.87959204     0.00800
Br784      Br  0.81767263  0.85001292  0.00603338    -0.03600
Br785      Br  0.83344142  0.78392741  0.83567304     0.00900
Br786      Br  0.75594515  0.80260589  0.00668563    -0.02900
Br787      Br  0.74098039  0.82706286  0.87660918    -0.03700
Br788      Br  0.79744131  0.91028982  0.00959585     0.00200
C789        C  0.76156976  0.80763342  0.40760479     0.01600
C790        C  0.77789218  0.79417892  0.37842686     0.04500
C791        C  0.80178352  0.78493362  0.39284750    -0.11600
C792        C  0.80941771  0.78785226  0.43681543     0.23800
C793        C  0.79407648  0.80226714  0.46537941    -0.12200
C794        C  0.77061861  0.81269726  0.45062832     0.05200
C795        C  0.83227075  0.77333927  0.45277899     0.27600
C796        C  0.83036369  0.74663871  0.45661678    -0.12900
C797        C  0.85238490  0.73134551  0.45363005     0.05700
C798        C  0.87699707  0.74252132  0.45607670    -0.08800
C799        C  0.87880052  0.76951429  0.45798137     0.06500
C800        C  0.85658288  0.78484508  0.45471822    -0.13200
Br801      Br  0.80480219  0.80663448  0.52531419    -0.05300
Br802      Br  0.76749119  0.78586606  0.31938665     0.00400
Br803      Br  0.84783310  0.69637741  0.43614588     0.00800
Br804      Br  0.85943963  0.82145203  0.44887901    -0.03600
Br805      Br  0.75155097  0.83450775  0.48965455     0.00900
Br806      Br  0.82391289  0.76689144  0.35261979    -0.02900
Br807      Br  0.79707599  0.73113579  0.46192219    -0.03700
Br808      Br  0.91171857  0.78586539  0.45722981     0.00200
C809        C  0.68112084  0.74055613  0.41101126     0.01600
C810        C  0.67806852  0.72132596  0.37925058     0.04500
C811        C  0.68346328  0.69571465  0.38996026    -0.11600
C812        C  0.69078791  0.68900116  0.43297962     0.23800
C813        C  0.69181125  0.70779485  0.46562971    -0.12200
C814        C  0.68741044  0.73359335  0.45466571     0.05200
C815        C  0.69944164  0.66258216  0.44282633     0.27600
C816        C  0.68156932  0.64269769  0.44747563    -0.12900
C817        C  0.68997137  0.61720995  0.45036379     0.05700
C818        C  0.71650039  0.61160398  0.45278187    -0.08800
C819        C  0.73430965  0.63180852  0.44909930     0.06500
C820        C  0.72577483  0.65711166  0.44372238    -0.13200
Br821      Br  0.70057081  0.69808888  0.52495415    -0.05300
Br822      Br  0.66607151  0.72987227  0.32109478     0.00400
Br823      Br  0.66473543  0.59030015  0.44642064     0.00800
Br824      Br  0.75013141  0.68425822  0.43389286    -0.03600
Br825      Br  0.69242506  0.75920547  0.49910353     0.00900
Br826      Br  0.68224904  0.66998336  0.34499950    -0.02900
Br827      Br  0.64549479  0.65053691  0.44808785    -0.03700
Br828      Br  0.77031729  0.62499751  0.44396516     0.00200
C829        C  0.73395539  0.92618293  0.02515980     0.01600
C830        C  0.71896391  0.90397833  0.03281372     0.04500
C831        C  0.71601388  0.89391529  0.07544475    -0.11600
C832        C  0.72483328  0.90765985  0.11181627     0.23800
C833        C  0.73844076  0.93055270  0.10500308    -0.12200
C834        C  0.74418070  0.93902558  0.06199490     0.05200
C835        C  0.71817638  0.89859204  0.15691793     0.27600
C836        C  0.69294073  0.90146737  0.17239176    -0.12900
C837        C  0.68525445  0.88968205  0.21195140     0.05700
C838        C  0.70310066  0.87567429  0.23743648    -0.08800
C839        C  0.72883349  0.87433275  0.22329345     0.06500
C840        C  0.73622945  0.88538758  0.18282941    -0.13200
Br841      Br  0.74882790  0.95044922  0.15490151    -0.05300
Br842      Br  0.69913086  0.88889175  0.98684116     0.00400
Br843      Br  0.64952960  0.89087660  0.22827137     0.00800
Br844      Br  0.77080765  0.88145380  0.16177089    -0.03600
Br845      Br  0.76768557  0.96694442  0.05497274     0.00900
Br846      Br  0.69961538  0.86114351  0.08432320    -0.02900
Br847      Br  0.66857105  0.92079655  0.13802776    -0.03700
Br848      Br  0.75413741  0.85769563  0.25956154     0.00200
C849        C  0.57945588  0.79177735  0.01946926     0.01600
C850        C  0.59394840  0.81267026  0.03492189     0.04500
C851        C  0.60248574  0.81305551  0.07852883    -0.11600
C852        C  0.59609475  0.79292724  0.10742899     0.23800
C853        C  0.57974400  0.77324416  0.09322250    -0.12200
C854        C  0.57120323  0.77285745  0.04936901     0.05200
C855        C  0.60684336  0.79284188  0.15253930     0.27600
C856        C  0.63155013  0.78309709  0.15987011    -0.12900
C857        C  0.64391108  0.78715337  0.20027209     0.05700
C858        C  0.63123469  0.80057501  0.23432360    -0.08800
C859        C  0.60553589  0.80843842  0.22771486     0.06500
C860        C  0.59366206  0.80499392  0.18675128    -0.13200
Br861      Br  0.56936838  0.74682011  0.13386268    -0.05300
Br862      Br  0.60028691  0.84200047  0.99759376     0.00400
Br863      Br  0.67908217  0.77627362  0.20598121     0.00800
Br864      Br  0.55975384  0.81824336  0.17625707    -0.03600
Br865      Br  0.54715189  0.74743910  0.03086505     0.00900
Br866      Br  0.62312213  0.84118626  0.09887659    -0.02900
Br867      Br  0.64895882  0.76552845  0.11295943    -0.03700
Br868      Br  0.58607611  0.82393080  0.27444181     0.00200
C869        C  0.68817726  0.90437573  0.43529952     0.01600
C870        C  0.68026864  0.91535661  0.47511242     0.04500
C871        C  0.69114313  0.93859704  0.48904025    -0.11600
C872        C  0.70974104  0.95097523  0.46293530     0.23800
C873        C  0.71769416  0.93989753  0.42322676    -0.12200
C874        C  0.70723508  0.91651842  0.40982792     0.05200
C875        C  0.72195670  0.97514370  0.47735366     0.27600
C876        C  0.71248910  0.99873270  0.46224332    -0.12900
C877        C  0.72704469  0.02120037  0.46742497     0.05700
C878        C  0.75084735  0.02055599  0.48952390    -0.08800
C879        C  0.76001814  0.99656022  0.50506386     0.06500
C880        C  0.74541225  0.97417874  0.49964049    -0.13200
Br881      Br  0.74350375  0.95654983  0.38763894    -0.05300
Br882      Br  0.65499240  0.89826423  0.51076699     0.00400
Br883      Br  0.71671433  0.05104333  0.43511579     0.00800
Br884      Br  0.75865021  0.94141986  0.51857723    -0.03600
Br885      Br  0.72038256  0.90038232  0.35788548     0.00900
Br886      Br  0.68119119  0.95328536  0.54419850    -0.02900
Br887      Br  0.68074153  0.99950990  0.42995782    -0.03700
Br888      Br  0.79430753  0.99283672  0.52757740     0.00200
C889        C  0.21922947  0.88933550  0.45217195     0.01600
C890        C  0.23409786  0.86748837  0.46218777     0.04500
C891        C  0.22343026  0.84288256  0.45869164    -0.11600
C892        C  0.19885576  0.83972602  0.44087168     0.23800
C893        C  0.18343568  0.86122022  0.43291847    -0.12200
C894        C  0.19335554  0.88592073  0.43925918     0.05200
C895        C  0.19179193  0.81464400  0.42193438     0.27600
C896        C  0.20269178  0.80757819  0.38154779    -0.12900
C897        C  0.19898417  0.78285844  0.36513445     0.05700
C898        C  0.18294052  0.76533365  0.38786964    -0.08800
C899        C  0.17029510  0.77334424  0.42660496     0.06500
C900        C  0.17528791  0.79768688  0.44412227    -0.13200
Br901      Br  0.14954225  0.85671348  0.40920471    -0.05300
Br902      Br  0.27028677  0.87004459  0.47151654     0.00400
Br903      Br  0.21839146  0.77297112  0.31386854     0.00800
Br904      Br  0.16026063  0.80765901  0.49919045    -0.03600
Br905      Br  0.17182577  0.91497099  0.42563906     0.00900
Br906      Br  0.24335297  0.81301963  0.47379578    -0.02900
Br907      Br  0.22354077  0.83183059  0.34921776    -0.03700
Br908      Br  0.14565995  0.75143899  0.45565208     0.00200
C909        C  0.59501071  0.81978474  0.43168499     0.01600
C910        C  0.58616348  0.79600775  0.41638360     0.04500
C911        C  0.56249647  0.78618733  0.43079744    -0.11600
C912        C  0.54745306  0.79988656  0.46107228     0.23800
C913        C  0.55639580  0.82351988  0.47688601    -0.12200
C914        C  0.58006976  0.83350888  0.46203038     0.05200
C915        C  0.52214252  0.78912087  0.47485964     0.27600
C916        C  0.50022136  0.79461061  0.44991089    -0.12900
C917        C  0.47810351  0.77924950  0.45404868     0.05700
C918        C  0.47728950  0.75838200  0.48403266    -0.08800
C919        C  0.49971545  0.75294908  0.50855904     0.06500
C920        C  0.52123837  0.76921285  0.50603543    -0.13200
Br921      Br  0.53614142  0.84203515  0.51879391    -0.05300
Br922      Br  0.60685710  0.77645247  0.37622679     0.00400
Br923      Br  0.45164327  0.78353252  0.41100907     0.00800
Br924      Br  0.55076715  0.76298559  0.54246847    -0.03600
Br925      Br  0.59166434  0.86633478  0.48188189     0.00900
Br926      Br  0.55050647  0.75382767  0.40873264    -0.02900
Br927      Br  0.50161768  0.82182025  0.40679359    -0.03700
Br928      Br  0.50418855  0.72051140  0.53748867     0.00200
C929        C  0.38951505  0.72092418  0.46637294     0.01600
C930        C  0.37414917  0.70780346  0.49752511     0.04500
C931        C  0.34779547  0.70392013  0.48977781    -0.11600
C932        C  0.33671566  0.71196535  0.44999591     0.23800
C933        C  0.35180671  0.72508417  0.41889585    -0.12200
C934        C  0.37802915  0.72928965  0.42670491     0.05200
C935        C  0.30972618  0.70514703  0.43911738     0.27600
C936        C  0.30428063  0.68192052  0.41778130    -0.12900
C937        C  0.27927715  0.67668051  0.40291104     0.05700
C938        C  0.25955784  0.69458804  0.40936913    -0.08800
C939        C  0.26472395  0.71711287  0.43300551     0.06500
C940        C  0.28972652  0.72243836  0.44761265    -0.13200
Br941      Br  0.33647058  0.73656735  0.36467305    -0.05300
Br942      Br  0.38919211  0.69197072  0.54814701     0.00400
Br943      Br  0.27200645  0.64524431  0.37291495     0.00800
Br944      Br  0.29687392  0.75366330  0.47849791    -0.03600
Br945      Br  0.39833546  0.74494032  0.38091295     0.00900
Br946      Br  0.32675999  0.68675420  0.53294736    -0.02900
Br947      Br  0.33135055  0.65760048  0.40806522    -0.03700
Br948      Br  0.23750621  0.74070125  0.44569868     0.00200
C949        C  0.10084803  0.78552705  0.95667494     0.01600
C950        C  0.12057559  0.76727153  0.95230852     0.04500
C951        C  0.14618675  0.77515719  0.94873088    -0.11600
C952        C  0.15222245  0.80134228  0.94726443     0.23800
C953        C  0.13287032  0.81968593  0.95241803    -0.12200
C954        C  0.10721627  0.81191635  0.95643151     0.05200
C955        C  0.17855750  0.80935174  0.93562126     0.27600
C956        C  0.19787177  0.80880254  0.96741486    -0.12900
C957        C  0.22360431  0.81218243  0.95496148     0.05700
C958        C  0.23001272  0.81731550  0.91024767    -0.08800
C959        C  0.20988738  0.82117039  0.87973892     0.06500
C960        C  0.18446787  0.81601399  0.89199178    -0.13200
Br961      Br  0.14164760  0.85555014  0.95153648    -0.05300
Br962      Br  0.11281417  0.73188547  0.94231239     0.00400
Br963      Br  0.24911716  0.80847838  0.00034960     0.00800
Br964      Br  0.15770937  0.81687540  0.84840238    -0.03600
Br965      Br  0.08098092  0.83795423  0.95698113     0.00900
Br966      Br  0.17306436  0.75007719  0.94245036    -0.02900
Br967      Br  0.18870140  0.80235652  0.02796439    -0.03700
Br968      Br  0.21621732  0.83503940  0.82166710     0.00200
C969        C  0.31642518  0.74178266  0.91171986     0.01600
C970        C  0.31080409  0.73435277  0.95554310     0.04500
C971        C  0.31006315  0.70825059  0.96732916    -0.11600
C972        C  0.31364587  0.68938779  0.93534321     0.23800
C973        C  0.32106505  0.69662787  0.89258105    -0.12200
C974        C  0.32319420  0.72269237  0.88116128     0.05200
C975        C  0.30664622  0.66234420  0.94522899     0.27600
C976        C  0.32553068  0.64393414  0.95425838    -0.12900
C977        C  0.31877487  0.61793809  0.95886809     0.05700
C978        C  0.29273482  0.61027501  0.95712684    -0.08800
C979        C  0.27393233  0.62902156  0.94826977     0.06500
C980        C  0.28084536  0.65485471  0.94261608    -0.13200
Br981      Br  0.32705797  0.67074718  0.84901228    -0.05300
Br982      Br  0.30184235  0.75922221  0.99932372     0.00400
Br983      Br  0.34585533  0.59296094  0.96284789     0.00800
Br984      Br  0.25510420  0.68001815  0.92796948    -0.03600
Br985      Br  0.33622184  0.73198293  0.82389950     0.00900
Br986      Br  0.30304199  0.69794559  0.02703123    -0.02900
Br987      Br  0.36081274  0.65443293  0.95850907    -0.03700
Br988      Br  0.23927452  0.61931581  0.93594385     0.00200
C989        C  0.27898847  0.86850625  0.72725256     0.01600
C990        C  0.27489228  0.85454502  0.68813495     0.04500
C991        C  0.26670324  0.86705140  0.64966354    -0.11600
C992        C  0.26317653  0.89366580  0.64911977     0.23800
C993        C  0.26627747  0.90763112  0.68798118    -0.12200
C994        C  0.27385590  0.89512196  0.72706463     0.05200
C995        C  0.25814099  0.90681341  0.60655850     0.27600
C996        C  0.27871218  0.91252021  0.57838709    -0.12900
C997        C  0.27416078  0.92130971  0.53533915     0.05700
C998        C  0.24880817  0.92452977  0.51980683    -0.08800
C999        C  0.22827806  0.92003149  0.54933952     0.06500
C1000       C  0.23296011  0.91108710  0.59232443    -0.13200
Br1001     Br  0.26087963  0.94408969  0.68687938    -0.05300
Br1002     Br  0.28267640  0.81861490  0.68444432     0.00400
Br1003     Br  0.30313244  0.92565156  0.49726520     0.00800
Br1004     Br  0.20490431  0.90355018  0.63157043    -0.03600
Br1005     Br  0.27670152  0.91472498  0.78010974     0.00900
Br1006     Br  0.26138233  0.84790673  0.59644203    -0.02900
Br1007     Br  0.31328594  0.90653817  0.59836700    -0.03700
Br1008     Br  0.19352865  0.92629488  0.53198098     0.00200
C1009       C  0.35848077  0.79645449  0.72616486     0.01600
C1010       C  0.34738801  0.77823599  0.69734772     0.04500
C1011       C  0.35991522  0.77167465  0.65799761    -0.11600
C1012       C  0.38357739  0.78279242  0.64697356     0.23800
C1013       C  0.39512489  0.80008646  0.67578761    -0.12200
C1014       C  0.38314538  0.80632570  0.71571508     0.05200
C1015       C  0.39763769  0.77398110  0.60744146     0.27600
C1016       C  0.41506340  0.75368827  0.61150442    -0.12900
C1017       C  0.42690423  0.74356170  0.57404576     0.05700
C1018       C  0.42191242  0.75396798  0.53192103    -0.08800
C1019       C  0.40475323  0.77474114  0.52824540     0.06500
C1020       C  0.39267149  0.78469136  0.56585112    -0.13200
Br1021     Br  0.42766373  0.81511864  0.66010783    -0.05300
Br1022     Br  0.31537405  0.76120450  0.71030642     0.00400
Br1023     Br  0.44724000  0.71325093  0.58093629     0.00800
Br1024     Br  0.36853671  0.81242106  0.56059742    -0.03600
Br1025     Br  0.40231506  0.82648455  0.75719553     0.00900
Br1026     Br  0.34481301  0.74718820  0.61853326    -0.02900
Br1027     Br  0.42151217  0.73883028  0.66867783    -0.03700
Br1028     Br  0.39680600  0.78918066  0.47195730     0.00200
C1029       C  0.52822085  0.80226101  0.96116133     0.01600
C1030       C  0.51185741  0.78634464  0.93626358     0.04500
C1031       C  0.48545828  0.79107146  0.93454624    -0.11600
C1032       C  0.47488734  0.81126511  0.95854736     0.23800
C1033       C  0.49035971  0.82523230  0.98737285    -0.12200
C1034       C  0.51702886  0.82108669  0.98825924     0.05200
C1035       C  0.44826090  0.81940681  0.94918453     0.27600
C1036       C  0.44388000  0.83929022  0.91874065    -0.12900
C1037       C  0.41882978  0.84518250  0.90527394     0.05700
C1038       C  0.39799773  0.82999147  0.91991193    -0.08800
C1039       C  0.40265437  0.80997812  0.95075198     0.06500
C1040       C  0.42755171  0.80551078  0.96649084    -0.13200
Br1041     Br  0.47482791  0.85104043  0.02361158    -0.05300
Br1042     Br  0.52532266  0.75900582  0.90112040     0.00400
Br1043     Br  0.41360039  0.87470342  0.86785655     0.00800
Br1044     Br  0.43376685  0.77961415  0.01070152    -0.03600
Br1045     Br  0.53747059  0.84286246  0.02422698     0.00900
Br1046     Br  0.46388709  0.77119795  0.89624132    -0.02900
Br1047     Br  0.47255903  0.85773165  0.89392029    -0.03700
Br1048     Br  0.37603243  0.78651758  0.96895399     0.00200
C1049       C  0.48240259  0.24868933  0.00062097     0.01600
C1050       C  0.50611953  0.26193822  0.00274210     0.04500
C1051       C  0.52928842  0.24871646  0.99738411    -0.11600
C1052       C  0.52918419  0.22208391  0.99227118     0.23800
C1053       C  0.50622296  0.20840790  0.99712447    -0.12200
C1054       C  0.48278775  0.22161598  0.00020838     0.05200
C1055       C  0.55205919  0.20949560  0.97334616     0.27600
C1056       C  0.55419970  0.20774458  0.92741478    -0.12900
C1057       C  0.57705991  0.19917989  0.90820931     0.05700
C1058       C  0.59792736  0.19195247  0.93495001    -0.08800
C1059       C  0.59519290  0.19242360  0.98112884     0.06500
C1060       C  0.57234020  0.20135532  0.00020840    -0.13200
Br1061     Br  0.50700368  0.17157616  0.99412337    -0.05300
Br1062     Br  0.50726333  0.29883482  0.00630050     0.00400
Br1063     Br  0.57999019  0.19948634  0.84509321     0.00800
Br1064     Br  0.56877721  0.20309199  0.06303885    -0.03600
Br1065     Br  0.45190563  0.20210086  0.99615195     0.00900
Br1066     Br  0.56103564  0.26734780  0.99097000    -0.02900
Br1067     Br  0.52598692  0.21830610  0.89062607    -0.03700
Br1068     Br  0.62236672  0.18020711  0.01852785     0.00200
C1069       C  0.26553780  0.31221607  0.91380541     0.01600
C1070       C  0.27120504  0.29664918  0.95052863     0.04500
C1071       C  0.29674828  0.29170785  0.96179840    -0.11600
C1072       C  0.31666352  0.30287940  0.93717409     0.23800
C1073       C  0.31103167  0.31886276  0.90100459    -0.12200
C1074       C  0.28548920  0.32299699  0.88863562     0.05200
C1075       C  0.34349582  0.29600179  0.94684273     0.27600
C1076       C  0.35654745  0.30732472  0.98207322    -0.12900
C1077       C  0.38219725  0.30078951  0.99051985     0.05700
C1078       C  0.39496330  0.28341918  0.96301190    -0.08800
C1079       C  0.38204021  0.27306643  0.92645220     0.06500
C1080       C  0.35608083  0.27835756  0.91981956    -0.13200
Br1081     Br  0.33843005  0.33451142  0.86778803    -0.05300
Br1082     Br  0.24407715  0.28022074  0.98334901     0.00400
Br1083     Br  0.40040110  0.31761459  0.03685136     0.00800
Br1084     Br  0.33759010  0.26131787  0.87368127    -0.03600
Br1085     Br  0.27795116  0.34283016  0.83662698     0.00900
Br1086     Br  0.30458858  0.26847801  0.00943667    -0.02900
Br1087     Br  0.33943759  0.33246707  0.01754765    -0.03700
Br1088     Br  0.39975543  0.25173984  0.88453134     0.00200
C1089       C  0.30637092  0.90900293  0.92100192     0.01600
C1090       C  0.32342004  0.92610343  0.94120905     0.04500
C1091       C  0.31423643  0.94932767  0.95841826    -0.11600
C1092       C  0.28822624  0.95590647  0.95368473     0.23800
C1093       C  0.27142253  0.93906325  0.93216532    -0.12200
C1094       C  0.28030973  0.91541088  0.91702906     0.05200
C1095       C  0.27795662  0.98041494  0.97072782     0.27600
C1096       C  0.26201041  0.98008622  0.00789877    -0.12900
C1097       C  0.24559303  0.00082226  0.01629002     0.05700
C1098       C  0.24692748  0.02335847  0.99033205    -0.08800
C1099       C  0.26438893  0.02409350  0.95470656     0.06500
C1100       C  0.27974273  0.00273180  0.94496799    -0.13200
Br1101     Br  0.23612681  0.94855950  0.92282942    -0.05300
Br1102     Br  0.35905455  0.91722812  0.94650958     0.00400
Br1103     Br  0.21858660  0.99573336  0.05822586     0.00800
Br1104     Br  0.30135380  0.00288997  0.89347259    -0.03600
Br1105     Br  0.25663500  0.89167540  0.89075928     0.00900
Br1106     Br  0.33696878  0.97189865  0.98920180    -0.02900
Br1107     Br  0.26109735  0.94992127  0.04483526    -0.03700
Br1108     Br  0.26415649  0.05214028  0.91365101     0.00200
C1109       C  0.19126923  0.23858063  0.90950984     0.01600
C1110       C  0.21498974  0.22618248  0.90394842     0.04500
C1111       C  0.21877271  0.20154032  0.92138808    -0.11600
C1112       C  0.19830799  0.18839603  0.94161873     0.23800
C1113       C  0.17444216  0.20069679  0.94665400    -0.12200
C1114       C  0.17119712  0.22601716  0.93171107     0.05200
C1115       C  0.20144050  0.16105395  0.95419564     0.27600
C1116       C  0.20326708  0.14253101  0.92122525    -0.12900
C1117       C  0.20743787  0.11675515  0.93238252     0.05700
C1118       C  0.20702124  0.10864033  0.97694844    -0.08800
C1119       C  0.20303369  0.12723707  0.00972798     0.06500
C1120       C  0.20216608  0.15342619  0.99851215    -0.13200
Br1121     Br  0.14598980  0.18275927  0.97306900    -0.05300
Br1122     Br  0.24258810  0.24303880  0.87304665     0.00400
Br1123     Br  0.21335718  0.09302012  0.88531592     0.00800
Br1124     Br  0.20156643  0.17902556  0.04372852    -0.03600
Br1125     Br  0.13910445  0.24338862  0.94068180     0.00900
Br1126     Br  0.25215279  0.18583037  0.91822797    -0.02900
Br1127     Br  0.19896896  0.15248693  0.86044231    -0.03700
Br1128     Br  0.19430228  0.11758679  0.06863882     0.00200
C1129       C  0.23399974  0.19327324  0.41841288     0.01600
C1130       C  0.21247297  0.18760697  0.39253175     0.04500
C1131       C  0.18811618  0.19661670  0.40478977    -0.11600
C1132       C  0.18522749  0.21194748  0.44234726     0.23800
C1133       C  0.20644407  0.21652146  0.46947573    -0.12200
C1134       C  0.23070832  0.20693639  0.45792655     0.05200
C1135       C  0.16041107  0.22500579  0.45080930     0.27600
C1136       C  0.15369903  0.24647275  0.42528141    -0.12900
C1137       C  0.12891314  0.25676020  0.42798348     0.05700
C1138       C  0.11105418  0.24693582  0.45895773    -0.08800
C1139       C  0.11840878  0.22620012  0.48617715     0.06500
C1140       C  0.14292550  0.21518394  0.48183939    -0.13200
Br1141     Br  0.20242739  0.23732313  0.52102764    -0.05300
Br1142     Br  0.21643050  0.16757648  0.34011293     0.00400
Br1143     Br  0.11926925  0.28306454  0.38616245     0.00800
Br1144     Br  0.15217704  0.18556900  0.51642247    -0.03600
Br1145     Br  0.25962939  0.21453370  0.49483950     0.00900
Br1146     Br  0.15869353  0.18875754  0.36931299    -0.02900
Br1147     Br  0.17847741  0.26124878  0.38532216    -0.03700
Br1148     Br  0.09414458  0.21034433  0.52526159     0.00200
C1149       C  0.30219540  0.26566092  0.40171420     0.01600
C1150       C  0.31109255  0.27637593  0.44140407     0.04500
C1151       C  0.30135090  0.29995266  0.45596960    -0.11600
C1152       C  0.28339744  0.31332215  0.43038695     0.23800
C1153       C  0.27592289  0.30371261  0.38940872    -0.12200
C1154       C  0.28496470  0.27990161  0.37520480     0.05200
C1155       C  0.27150531  0.33728618  0.44607861     0.27600
C1156       C  0.24864592  0.33613816  0.47053062    -0.12900
C1157       C  0.23315980  0.35802325  0.47446138     0.05700
C1158       C  0.24066236  0.38119998  0.45418066    -0.08800
C1159       C  0.26444631  0.38251376  0.43193071     0.06500
C1160       C  0.28008748  0.36078799  0.42904398    -0.13200
Br1161     Br  0.25216737  0.32292300  0.35341297    -0.05300
Br1162     Br  0.33713581  0.25932144  0.47558642     0.00400
Br1163     Br  0.20035142  0.35486823  0.50251367     0.00800
Br1164     Br  0.31241195  0.36244788  0.39846072    -0.03600
Br1165     Br  0.27140912  0.26655416  0.32098752     0.00900
Br1166     Br  0.31194906  0.31382986  0.51140532    -0.02900
Br1167     Br  0.23760506  0.30388532  0.49528850    -0.03700
Br1168     Br  0.27485550  0.41344322  0.40170110     0.00200
C1169       C  0.24332402  0.07667775  0.04180501     0.01600
C1170       C  0.23400396  0.07082793  0.08437182     0.04500
C1171       C  0.24598640  0.08088793  0.12166830    -0.11600
C1172       C  0.26717201  0.09726955  0.11707520     0.23800
C1173       C  0.27690565  0.10280189  0.07487237    -0.12200
C1174       C  0.26473833  0.09291401  0.03733983     0.05200
C1175       C  0.27697462  0.11082084  0.15643927     0.27600
C1176       C  0.26842431  0.13575232  0.16536920    -0.12900
C1177       C  0.27558249  0.14804963  0.20434390     0.05700
C1178       C  0.29080102  0.13508686  0.23591394    -0.08800
C1179       C  0.29910994  0.10981884  0.22692356     0.06500
C1180       C  0.29271893  0.09809280  0.18691233    -0.13200
Br1181     Br  0.30641347  0.12468186  0.06876185    -0.05300
Br1182     Br  0.20180027  0.05332686  0.09192549     0.00400
Br1183     Br  0.26539040  0.18329515  0.21201300     0.00800
Br1184     Br  0.30550369  0.06446957  0.17334497    -0.03600
Br1185     Br  0.27606650  0.10351270  0.98011170     0.00900
Br1186     Br  0.23208097  0.07387309  0.17931150    -0.02900
Br1187     Br  0.24669970  0.15316652  0.12382304    -0.03700
Br1188     Br  0.31806772  0.09023413  0.26988427     0.00200
C1189       C  0.42431964  0.25402708  0.03846053     0.01600
C1190       C  0.40300541  0.23714157  0.03878279     0.04500
C1191       C  0.39153420  0.22946282  0.07868661    -0.11600
C1192       C  0.40220606  0.23680458  0.11897246     0.23800
C1193       C  0.42375489  0.25290997  0.11909973    -0.12200
C1194       C  0.43400641  0.26233764  0.07928825     0.05200
C1195       C  0.39072654  0.22738721  0.16103499     0.27600
C1196       C  0.37513835  0.24355176  0.18645772    -0.12900
C1197       C  0.36345307  0.23425364  0.22518522     0.05700
C1198       C  0.36620380  0.20830958  0.23774137    -0.08800
C1199       C  0.38184469  0.19215729  0.21210800     0.06500
C1200       C  0.39455362  0.20186314  0.17467075    -0.13200
Br1201     Br  0.43922971  0.26201619  0.17421305    -0.05300
Br1202     Br  0.39009988  0.22228651  0.98581482     0.00400
Br1203     Br  0.34429560  0.25745019  0.26158580     0.00800
Br1204     Br  0.41692467  0.18003574  0.14121484    -0.03600
Br1205     Br  0.45948733  0.28868456  0.08178415     0.00900
Br1206     Br  0.36079530  0.20889798  0.07845327    -0.02900
Br1207     Br  0.36904792  0.27825233  0.16720128    -0.03700
Br1208     Br  0.38422141  0.15610015  0.22550023     0.00200
C1209       C  0.39808279  0.18679184  0.43958014     0.01600
C1210       C  0.40174914  0.18831730  0.48546975     0.04500
C1211       C  0.42488699  0.19791573  0.50245219    -0.11600
C1212       C  0.44461114  0.20551440  0.47375717     0.23800
C1213       C  0.44148967  0.20286741  0.42814036    -0.12200
C1214       C  0.41830902  0.19381126  0.41105715     0.05200
C1215       C  0.46831384  0.21783202  0.48996133     0.27600
C1216       C  0.47061876  0.24448261  0.48579968    -0.12900
C1217       C  0.49493577  0.25565036  0.48166506     0.05700
C1218       C  0.51724117  0.24026017  0.48407779    -0.08800
C1219       C  0.51470718  0.21407276  0.49495098     0.06500
C1220       C  0.49020175  0.20291957  0.49797879    -0.13200
Br1221     Br  0.46894723  0.21264433  0.38871442    -0.05300
Br1222     Br  0.37545339  0.17658829  0.52531224     0.00400
Br1223     Br  0.49714762  0.29149928  0.46580008     0.00800
Br1224     Br  0.48641110  0.16667840  0.50801022    -0.03600
Br1225     Br  0.41417609  0.19315047  0.34825683     0.00900
Br1226     Br  0.42953318  0.20129138  0.56478785    -0.02900
Br1227     Br  0.44017713  0.26507858  0.47974413    -0.03700
Br1228     Br  0.54420160  0.19233145  0.49856989     0.00200
C1229       C  0.26521785  0.97448463  0.46447298     0.01600
C1230       C  0.25317922  0.99324003  0.49048313     0.04500
C1231       C  0.26382696  0.01797642  0.49372858    -0.11600
C1232       C  0.28640888  0.02422576  0.47072660     0.23800
C1233       C  0.29948968  0.00509922  0.44764342    -0.12200
C1234       C  0.28847627  0.98077847  0.44279216     0.05200
C1235       C  0.29337780  0.05142871  0.46203209     0.27600
C1236       C  0.28123503  0.06448478  0.42720240    -0.12900
C1237       C  0.28990889  0.08875224  0.41380777     0.05700
C1238       C  0.31134289  0.09990241  0.43412102    -0.08800
C1239       C  0.32288928  0.08737736  0.47013845     0.06500
C1240       C  0.31372115  0.06327015  0.48436518    -0.13200
Br1241     Br  0.33153798  0.01314130  0.41902887    -0.05300
Br1242     Br  0.21980598  0.98700351  0.51487379     0.00400
Br1243     Br  0.27182432  0.10710851  0.36821654     0.00800
Br1244     Br  0.32929387  0.04600592  0.53352270    -0.03600
Br1245     Br  0.30377973  0.95774247  0.40081726     0.00900
Br1246     Br  0.24639833  0.04420978  0.52628880    -0.02900
Br1247     Br  0.25324061  0.04859919  0.39642705    -0.03700
Br1248     Br  0.35209811  0.10252946  0.49822352     0.00200
loop_ 
_geom_bond_atom_site_label_1 
_geom_bond_atom_site_label_2 
_geom_bond_distance 
_geom_bond_site_symmetry_2 
_ccdc_geom_bond_type 
Fe1          O17   2.066       .  S
Fe1           O7   2.082       .  S
Fe1          O14   2.088       .  S
Fe1           O6   2.069       .  S
Fe1          O12   1.951       .  S
Fe2           O5   2.059       .  S
Fe2           O9   2.088       .  S
Fe2          O13   2.058       .  S
Fe2          O18   2.082       .  S
Fe2          O12   1.958       .  S
Fe3          O21   2.087       .  S
Fe3           O8   2.060       .  S
Fe3          O15   2.069       .  S
Fe3           O4   2.087       .  S
Fe3          O12   1.942       .  S
O4           C11   1.272       .  A
O5           C19   1.267       .  A
O6           C11   1.271       .  A
O7           C10   1.272       .  A
O8           C20   1.269       .  A
O9           C22   1.273       .  A
C10          O15   1.272       .  A
C10        C1178   1.495       .  S
C11        C1198   1.491       .  S
O13          C16   1.268       .  A
O14          C16   1.273       .  A
C16        C1209   1.486       .  S
O17          C22   1.272       .  A
O18          C20   1.273       .  A
C19          O21   1.273       .  A
C19        C1129   1.483       .  S
C20        C1149   1.487       .  S
C22        C1238   1.482       .  S
N23          C27   1.366   1_554  A
N23          C24   1.367   1_554  A
N23        C1169   1.448       .  S
C24        C1098   1.496       .  S
C24          C25   1.381       .  A
C25          C26   1.374       .  A
C25          H28   1.079       .  S
C26          C27   1.384       .  A
C26          H29   1.080       .  S
C27        C1118   1.500       .  S
N30          C34   1.369       .  A
N30          C31   1.373       .  A
N30        C1189   1.460   1_556  S
C31        C1049   1.496   1_556  S
C31          C32   1.384       .  A
C32          C33   1.360       .  A
C32          H35   1.084       .  S
C33          C34   1.377       .  A
C33          H36   1.083       .  S
C34        C1078   1.479       .  S
Fe37         O53   2.074       .  S
Fe37         O43   2.070       .  S
Fe37         O50   2.085       .  S
Fe37         O42   2.069       .  S
Fe37         O48   1.972       .  S
Fe38         O41   2.071       .  S
Fe38         O45   2.063       .  S
Fe38         O49   2.046       .  S
Fe38         O54   2.058       .  S
Fe38         O48   1.974       .  S
Fe39         O57   2.074       .  S
Fe39         O44   2.062       .  S
Fe39         O51   2.071       .  S
Fe39         O40   2.082       .  S
Fe39         O48   1.966       .  S
O40          C47   1.273       .  A
O41          C55   1.269       .  A
O42          C47   1.271       .  A
O43          C46   1.268       .  A
O44          C56   1.269       .  A
O45          C58   1.267       .  A
C46          O51   1.268       .  A
C46        C1009   1.503       .  S
C47         C989   1.497       .  S
O49          C52   1.264       .  A
O50          C52   1.270       .  A
C52        C1089   1.474       .  S
O53          C58   1.271       .  A
O54          C56   1.265       .  A
C55          O57   1.270       .  A
C55         C969   1.494       .  S
C56         C958   1.496       .  S
C58        C1038   1.493       .  S
N59          C63   1.368       .  A
N59          C60   1.373       .  A
N59        C1018   1.450       .  S
C60         C918   1.504       .  S
C60          C61   1.382       .  A
C61          C62   1.375       .  A
C61          H64   1.083       .  S
C62          C63   1.382       .  A
C62          H65   1.083       .  S
C63         C929   1.502       .  S
N66          C70   1.371       .  A
N66          C67   1.371       .  A
N66         C998   1.456       .  S
C67        C1229   1.492       .  S
C67          C68   1.381       .  A
C68          C69   1.364       .  A
C68          H71   1.082       .  S
C69          C70   1.381       .  A
C69          H72   1.083       .  S
C70         C889   1.495       .  S
Fe73         O89   2.093       .  S
Fe73         O79   2.059       .  S
Fe73         O86   2.066       .  S
Fe73         O78   2.079       .  S
Fe73         O84   1.949       .  S
Fe74         O77   2.096       .  S
Fe74         O81   2.056       .  S
Fe74         O85   2.094       .  S
Fe74         O90   2.052       .  S
Fe74         O84   1.959       .  S
Fe75         O93   2.074       .  S
Fe75         O80   2.087       .  S
Fe75         O87   2.088       .  S
Fe75         O76   2.074       .  S
Fe75         O84   1.942       .  S
O76          C83   1.272       .  A
O77          C91   1.274       .  A
O78          C83   1.273       .  A
O79          C82   1.269       .  A
O80          C92   1.274       .  A
O81          C94   1.269       .  A
C82          O87   1.273       .  A
C82         C838   1.489       .  S
C83         C858   1.496       .  S
O85          C88   1.272       .  A
O86          C88   1.268       .  A
C88         C909   1.486       .  S
O89          C94   1.276       .  A
O90          C92   1.267       .  A
C91          O93   1.271       .  A
C91         C789   1.506       .  S
C92         C809   1.481       .  S
C94         C869   1.477       .  S
N95          C99   1.371       .  A
N95          C96   1.372       .  A
N95         C829   1.459   1_556  S
C96         C758   1.491       .  S
C96          C97   1.383       .  A
C97          C98   1.360       .  A
C97         H100   1.083       .  S
C98          C99   1.378       .  A
C98         H101   1.082       .  S
C99         C778   1.486       .  S
N102        C106   1.365       .  A
N102        C103   1.365       .  A
N102        C849   1.444   1_556  S
C103       C1029   1.497       .  S
C103        C104   1.387       .  A
C104        C105   1.373       .  A
C104        H107   1.080       .  S
C105        C106   1.378       .  A
C105        H108   1.082       .  S
C106        C729   1.493       .  S
Fe109       O125   2.086       .  S
Fe109       O115   2.070       .  S
Fe109       O122   2.077       .  S
Fe109       O114   2.089       .  S
Fe109       O120   1.946       .  S
Fe110       O113   2.079       .  S
Fe110       O117   2.056       .  S
Fe110       O121   2.079       .  S
Fe110       O126   2.069       .  S
Fe110       O120   1.949       .  S
Fe111       O129   2.063       .  S
Fe111       O116   2.088       .  S
Fe111       O123   2.088       .  S
Fe111       O112   2.072       .  S
Fe111       O120   1.945       .  S
O112        C119   1.272       .  A
O113        C127   1.273       .  A
O114        C119   1.272       .  A
O115        C118   1.270       .  A
O116        C128   1.272       .  A
O117        C130   1.268       .  A
C118        O123   1.272       .  A
C118        C718   1.494       .  S
C119        C698   1.510       .  S
O121        C124   1.269       .  A
O122        C124   1.272       .  A
C124        C749   1.516       .  S
O125        C130   1.273       .  A
O126        C128   1.269       .  A
C127        O129   1.272       .  A
C127        C669   1.479       .  S
C128        C649   1.498       .  S
C130       C1058   1.483       .  S
N131        C135   1.368       .  A
N131        C132   1.368       .  A
N131        C709   1.457       .  S
C132       C1218   1.487       .  S
C132        C133   1.383       .  A
C133        C134   1.363       .  A
C133        H136   1.087       .  S
C134        C135   1.379       .  A
C134        H137   1.087       .  S
C135        C629   1.484       .  S
N138        C142   1.366       .  A
N138        C139   1.373       .  A
N138        C689   1.457       .  S
C139        C878   1.497       .  S
C139        C140   1.382       .  A
C140        C141   1.367       .  A
C140        H143   1.080       .  S
C141        C142   1.380       .  A
C141        H144   1.081       .  S
C142        C609   1.486       .  S
Fe145       O161   2.082       .  S
Fe145       O151   2.074       .  S
Fe145       O158   2.055       .  S
Fe145       O150   2.079       .  S
Fe145       O156   1.959       .  S
Fe146       O149   2.073       .  S
Fe146       O153   2.064       .  S
Fe146       O157   2.076       .  S
Fe146       O162   2.063       .  S
Fe146       O156   1.964       .  S
Fe147       O165   2.066       .  S
Fe147       O152   2.063       .  S
Fe147       O159   2.084       .  S
Fe147       O148   2.068       .  S
Fe147       O156   1.955       .  S
O148        C155   1.266       .  A
O149        C163   1.270       .  A
O150        C155   1.269       .  A
O151        C154   1.274       .  A
O152        C164   1.270       .  A
O153        C166   1.269       .  A
C154        O159   1.275       .  A
C154        C529   1.486       .  S
C155        C549   1.497       .  S
O157        C160   1.270       .  A
O158        C160   1.270       .  A
C160        C569   1.469       .  S
O161        C166   1.270       .  A
O162        C164   1.269       .  A
C163        O165   1.270       .  A
C163        C618   1.474       .  S
C164        C638   1.474       .  S
C166        C589   1.494       .  S
N167        C171   1.374       .  A
N167        C168   1.375       .  A
N167        C538   1.459   1_556  S
C168        C509   1.496       .  S
C168        C169   1.381       .  A
C169        C170   1.362       .  A
C169        H172   1.085       .  S
C170        C171   1.379       .  A
C170        H173   1.084       .  S
C171        C658   1.494       .  S
N174        C178   1.366       .  A
N174        C175   1.371       .  A
N174        C558   1.452   1_556  S
C175        C489   1.495       .  S
C175        C176   1.381       .  A
C176        C177   1.369       .  A
C176        H179   1.086       .  S
C177        C178   1.382       .  A
C177        H180   1.085       .  S
C178        C678   1.493       .  S
Fe181       O197   2.060       .  S
Fe181       O187   2.087       .  S
Fe181       O194   2.082       .  S
Fe181       O186   2.053       .  S
Fe181       O192   1.961       .  S
Fe182       O185   2.052       .  S
Fe182       O189   2.086       .  S
Fe182       O193   2.060       .  S
Fe182       O198   2.076       .  S
Fe182       O192   1.962       .  S
Fe183       O201   2.064       .  S
Fe183       O188   2.065       .  S
Fe183       O195   2.053       .  S
Fe183       O184   2.085       .  S
Fe183       O192   1.960       .  S
O184        C191   1.271       .  A
O185        C199   1.265       .  A
O186        C191   1.265       .  A
O187        C190   1.274       .  A
O188        C200   1.274       .  A
O189        C202   1.273       .  A
C190        O195   1.268       .  A
C190        C449   1.480       .  S
C191        C438   1.488       .  S
O193        C196   1.265       .  A
O194        C196   1.271       .  A
C196        C518   1.480       .  S
O197        C202   1.268       .  A
O198        C200   1.274       .  A
C199        O201   1.266       .  A
C199       C1069   1.469       .  S
C200       C1109   1.472       .  S
C202        C478   1.478       .  S
N203        C207   1.364       .  A
N203        C204   1.369       .  A
N203        C458   1.451       .  S
C204        C418   1.491       .  S
C204        C205   1.381       .  A
C205        C206   1.367       .  A
C205        H208   1.091       .  S
C206        C207   1.381       .  A
C206        H209   1.090       .  S
C207       C1158   1.485       .  S
N210        C214   1.371       .  A
N210        C211   1.371       .  A
N210        C429   1.454       .  S
C211        C598   1.494       .  S
C211        C212   1.382       .  A
C212        C213   1.364       .  A
C212        H215   1.084       .  S
C213        C214   1.380       .  A
C213        H216   1.083       .  S
C214       C1138   1.494       .  S
Fe217       O233   2.101       .  S
Fe217       O223   2.072       .  S
Fe217       O230   2.054       .  S
Fe217       O222   2.089       .  S
Fe217       O228   1.943       .  S
Fe218       O221   2.075       .  S
Fe218       O225   2.063       .  S
Fe218       O229   2.088       .  S
Fe218       O234   2.073       .  S
Fe218       O228   1.954       .  S
Fe219       O237   2.062       .  S
Fe219       O224   2.100       .  S
Fe219       O231   2.098       .  S
Fe219       O220   2.076       .  S
Fe219       O228   1.940       .  S
O220        C227   1.271       .  A
O221        C235   1.271       .  A
O222        C227   1.273       .  A
O223        C226   1.273       .  A
O224        C236   1.276       .  A
O225        C238   1.269       .  A
C226        O231   1.276       .  A
C226        C358   1.495       .  S
C227        C378   1.499       .  S
O229        C232   1.272       .  A
O230        C232   1.268       .  A
C232        C409   1.493       .  S
O233        C238   1.274       .  A
O234        C236   1.272       .  A
C235        O237   1.269       .  A
C235        C898   1.488       .  S
C236        C938   1.486       .  S
C238        C398   1.503       .  S
N239        C243   1.371       .  A
N239        C240   1.371       .  A
N239        C349   1.461   1_556  S
C240        C329   1.486       .  S
C240        C241   1.383       .  A
C241        C242   1.361       .  A
C241        H244   1.086       .  S
C242        C243   1.378       .  A
C242        H245   1.086       .  S
C243        C949   1.488       .  S
N246        C250   1.371       .  A
N246        C247   1.369       .  A
N246        C369   1.455   1_556  S
C247        C469   1.492       .  S
C247        C248   1.383       .  A
C248        C249   1.367       .  A
C248        H251   1.083       .  S
C249        C250   1.379       .  A
C249        H252   1.083       .  S
C250        C978   1.496       .  S
Fe253       O269   2.082       .  S
Fe253       O259   2.079       .  S
Fe253       O266   2.056       .  S
Fe253       O258   2.075       .  S
Fe253       O264   1.952       .  S
Fe254       O257   2.082       .  S
Fe254       O261   2.070       .  S
Fe254       O265   2.087       .  S
Fe254       O270   2.062       .  S
Fe254       O264   1.960       .  S
Fe255       O273   2.060       .  S
Fe255       O260   2.072       .  S
Fe255       O267   2.073       .  S
Fe255       O256   2.073       .  S
Fe255       O264   1.947       .  S
O256        C263   1.270       .  A
O257        C271   1.273       .  A
O258        C263   1.272       .  A
O259        C262   1.274       .  A
O260        C272   1.269       .  A
O261        C274   1.270       .  A
C262        O267   1.270       .  A
C262        C309   1.492       .  S
C263        C289   1.493       .  S
O265        C268   1.272       .  A
O266        C268   1.269       .  A
C268        C338   1.475       .  S
O269        C274   1.271       .  A
O270        C272   1.268       .  A
C271        O273   1.268       .  A
C271        C738   1.495       .  S
C272        C769   1.474       .  S
C274        C498   1.498       .  S
N275        C279   1.369       .  A
N275        C276   1.366       .  A
N275        C318   1.456       .  S
C276        C578   1.483       .  S
C276        C277   1.382       .  A
C277        C278   1.364       .  A
C277        H280   1.084       .  S
C278        C279   1.380       .  A
C278        H281   1.082       .  S
C279        C818   1.488       .  S
N282        C286   1.369       .  A
N282        C283   1.369       .  A
N282        C298   1.448       .  S
C283        C389   1.497       .  S
C283        C284   1.385       .  A
C284        C285   1.371       .  A
C284        H287   1.086       .  S
C285        C286   1.378       .  A
C285        H288   1.085       .  S
C286        C798   1.497       .  S
C289        C290   1.417       .  A
C289        C294   1.418       .  A
C290        C291   1.406       .  A
C290       Br302   1.932       .  S
C291        C292   1.405       .  A
C291       Br306   1.930       .  S
C292        C295   1.485       .  S
C292        C293   1.408       .  A
C293        C294   1.411       .  A
C293       Br301   1.931       .  S
C294       Br305   1.931       .  S
C295        C296   1.408       .  A
C295        C300   1.406       .  A
C296        C297   1.413       .  A
C296       Br307   1.927       .  S
C297        C298   1.412       .  A
C297       Br303   1.918       .  S
C298        C299   1.413       .  A
C299        C300   1.403       .  A
C299       Br308   1.922       .  S
C300       Br304   1.935       .  S
C309        C310   1.419       .  A
C309        C314   1.413       .  A
C310        C311   1.408       .  A
C310       Br322   1.931       .  S
C311        C312   1.407       .  A
C311       Br326   1.935       .  S
C312        C315   1.488       .  S
C312        C313   1.409       .  A
C313        C314   1.410       .  A
C313       Br321   1.929       .  S
C314       Br325   1.924       .  S
C315        C316   1.405       .  A
C315        C320   1.407       .  A
C316        C317   1.408       .  A
C316       Br327   1.931       .  S
C317        C318   1.417       .  A
C317       Br323   1.921       .  S
C318        C319   1.420       .  A
C319        C320   1.410       .  A
C319       Br328   1.920       .  S
C320       Br324   1.934       .  S
C329        C330   1.419       .  A
C329        C334   1.410   1_455  A
C330        C331   1.404   1_455  A
C330       Br342   1.937       .  S
C331        C332   1.406       .  A
C331       Br346   1.933       .  S
C332        C335   1.487       .  S
C332        C333   1.410       .  A
C333        C334   1.412       .  A
C333       Br341   1.927   1_556  S
C334       Br345   1.923   1_656  S
C335        C336   1.410       .  A
C335        C340   1.410       .  A
C336        C337   1.405       .  A
C336       Br347   1.931       .  S
C337        C338   1.408       .  A
C337       Br343   1.928       .  S
C338        C339   1.408       .  A
C339        C340   1.412       .  A
C339       Br348   1.926       .  S
C340       Br344   1.926       .  S
C349        C350   1.419       .  A
C349        C354   1.417       .  A
C350        C351   1.415       .  A
C350       Br362   1.921   1_554  S
C351        C352   1.411       .  A
C351       Br366   1.933       .  S
C352        C355   1.499       .  S
C352        C353   1.407       .  A
C353        C354   1.410       .  A
C353       Br361   1.931       .  S
C354       Br365   1.922       .  S
C355        C356   1.413       .  A
C355        C360   1.410       .  A
C356        C357   1.414       .  A
C356       Br367   1.929       .  S
C357        C358   1.414       .  A
C357       Br363   1.929       .  S
C358        C359   1.416       .  A
C359        C360   1.411       .  A
C359       Br368   1.928       .  S
C360       Br364   1.933       .  S
C369        C370   1.416       .  A
C369        C374   1.416       .  A
C370        C371   1.413       .  A
C370       Br382   1.922   1_554  S
C371        C372   1.411       .  A
C371       Br386   1.932       .  S
C372        C375   1.495       .  S
C372        C373   1.406       .  A
C373        C374   1.409       .  A
C373       Br381   1.931       .  S
C374       Br385   1.923       .  S
C375        C376   1.410       .  A
C375        C380   1.407       .  A
C376        C377   1.413       .  A
C376       Br387   1.931       .  S
C377        C378   1.420       .  A
C377       Br383   1.933       .  S
C378        C379   1.419       .  A
C379        C380   1.411       .  A
C379       Br388   1.929       .  S
C380       Br384   1.932       .  S
C389        C390   1.419       .  A
C389        C394   1.415       .  A
C390        C391   1.409   1_655  A
C390       Br402   1.933       .  S
C391        C392   1.407       .  A
C391       Br406   1.932       .  S
C392        C395   1.494       .  S
C392        C393   1.409       .  A
C393        C394   1.415   1_455  A
C393       Br401   1.930       .  S
C394       Br405   1.917       .  S
C395        C396   1.409       .  A
C395        C400   1.406       .  A
C396        C397   1.411       .  A
C396       Br407   1.933       .  S
C397        C398   1.422       .  A
C397       Br403   1.933       .  S
C398        C399   1.423       .  A
C399        C400   1.412       .  A
C399       Br408   1.934       .  S
C400       Br404   1.930       .  S
C409        C410   1.418       .  A
C409        C414   1.422       .  A
C410        C411   1.403       .  A
C410       Br422   1.937       .  S
C411        C412   1.411       .  A
C411       Br426   1.937       .  S
C412        C415   1.489       .  S
C412        C413   1.408       .  A
C413        C414   1.411       .  A
C413       Br421   1.931       .  S
C414       Br425   1.933       .  S
C415        C416   1.406       .  A
C415        C420   1.408       .  A
C416        C417   1.405       .  A
C416       Br427   1.933       .  S
C417        C418   1.419       .  A
C417       Br423   1.928       .  S
C418        C419   1.416       .  A
C419        C420   1.410       .  A
C419       Br428   1.920       .  S
C420       Br424   1.935       .  S
C429        C430   1.417       .  A
C429        C434   1.419       .  A
C430        C431   1.406       .  A
C430       Br442   1.921       .  S
C431        C432   1.406       .  A
C431       Br446   1.935       .  S
C432        C435   1.485       .  S
C432        C433   1.405       .  A
C433        C434   1.410       .  A
C433       Br441   1.932       .  S
C434       Br445   1.919       .  S
C435        C436   1.408       .  A
C435        C440   1.406       .  A
C436        C437   1.409       .  A
C436       Br447   1.931       .  S
C437        C438   1.416       .  A
C437       Br443   1.932       .  S
C438        C439   1.420       .  A
C439        C440   1.407       .  A
C439       Br448   1.935       .  S
C440       Br444   1.933       .  S
C449        C450   1.413       .  A
C449        C454   1.416       .  A
C450        C451   1.409       .  A
C450       Br462   1.931       .  S
C451        C452   1.409       .  A
C451       Br466   1.929       .  S
C452        C455   1.483       .  S
C452        C453   1.408       .  A
C453        C454   1.404       .  A
C453       Br461   1.935       .  S
C454       Br465   1.935       .  S
C455        C456   1.404       .  A
C455        C460   1.406       .  A
C456        C457   1.404       .  A
C456       Br467   1.937       .  S
C457        C458   1.416       .  A
C457       Br463   1.920       .  S
C458        C459   1.419       .  A
C459        C460   1.411       .  A
C459       Br468   1.920       .  S
C460       Br464   1.931       .  S
C469        C470   1.411   1_556  A
C469        C474   1.419       .  A
C470        C471   1.413   1_554  A
C470       Br482   1.921       .  S
C471        C472   1.411       .  A
C471       Br486   1.929   1_556  S
C472        C475   1.491       .  S
C472        C473   1.407       .  A
C473        C474   1.407       .  A
C473       Br481   1.932       .  S
C474       Br485   1.935       .  S
C475        C476   1.410       .  A
C475        C480   1.412       .  A
C476        C477   1.406       .  A
C476       Br487   1.932       .  S
C477        C478   1.409       .  A
C477       Br483   1.927       .  S
C478        C479   1.408       .  A
C479        C480   1.413       .  A
C479       Br488   1.927       .  S
C480       Br484   1.927       .  S
C489        C490   1.418       .  A
C489        C494   1.420       .  A
C490        C491   1.411       .  A
C490       Br502   1.921       .  S
C491        C492   1.405       .  A
C491       Br506   1.931       .  S
C492        C495   1.490       .  S
C492        C493   1.405       .  A
C493        C494   1.408       .  A
C493       Br501   1.933       .  S
C494       Br505   1.926       .  S
C495        C496   1.409       .  A
C495        C500   1.406       .  A
C496        C497   1.406       .  A
C496       Br507   1.937       .  S
C497        C498   1.420       .  A
C497       Br503   1.932       .  S
C498        C499   1.422       .  A
C499        C500   1.414       .  A
C499       Br508   1.932   1_556  S
C500       Br504   1.929   1_556  S
C509        C510   1.422       .  A
C509        C514   1.415   1_556  A
C510        C511   1.406   1_655  A
C510       Br522   1.937       .  S
C511        C512   1.405       .  A
C511       Br526   1.934       .  S
C512        C515   1.490       .  S
C512        C513   1.408   1_556  A
C513        C514   1.415   1_455  A
C513       Br521   1.929       .  S
C514       Br525   1.920       .  S
C515        C516   1.411       .  A
C515        C520   1.410   1_556  A
C516        C517   1.406       .  A
C516       Br527   1.933       .  S
C517        C518   1.410       .  A
C517       Br523   1.930       .  S
C518        C519   1.411       .  A
C519        C520   1.413   1_556  A
C519       Br528   1.927   1_556  S
C520       Br524   1.926       .  S
C529        C530   1.413       .  A
C529        C534   1.413       .  A
C530        C531   1.403       .  A
C530       Br542   1.924       .  S
C531        C532   1.407       .  A
C531       Br546   1.935       .  S
C532        C535   1.489       .  S
C532        C533   1.411       .  A
C533        C534   1.414       .  A
C533       Br541   1.927       .  S
C534       Br545   1.926       .  S
C535        C536   1.405       .  A
C535        C540   1.406       .  A
C536        C537   1.411       .  A
C536       Br547   1.931       .  S
C537        C538   1.420       .  A
C537       Br543   1.918       .  S
C538        C539   1.419       .  A
C539        C540   1.409       .  A
C539       Br548   1.916       .  S
C540       Br544   1.935       .  S
C549        C550   1.420       .  A
C549        C554   1.418       .  A
C550        C551   1.410       .  A
C550       Br562   1.934       .  S
C551        C552   1.409       .  A
C551       Br566   1.934       .  S
C552        C555   1.490       .  S
C552        C553   1.407       .  A
C553        C554   1.410       .  A
C553       Br561   1.930       .  S
C554       Br565   1.931       .  S
C555        C556   1.406       .  A
C555        C560   1.407       .  A
C556        C557   1.407       .  A
C556       Br567   1.936       .  S
C557        C558   1.417       .  A
C557       Br563   1.922       .  S
C558        C559   1.416       .  A
C559        C560   1.412       .  A
C559       Br568   1.919       .  S
C560       Br564   1.929       .  S
C569        C570   1.409       .  A
C569        C574   1.407       .  A
C570        C571   1.409       .  A
C570       Br582   1.928       .  S
C571        C572   1.409       .  A
C571       Br586   1.926       .  S
C572        C575   1.480       .  S
C572        C573   1.410       .  A
C573        C574   1.401       .  A
C573       Br581   1.933       .  S
C574       Br585   1.928       .  S
C575        C576   1.408       .  A
C575        C580   1.405       .  A
C576        C577   1.410       .  A
C576       Br587   1.928       .  S
C577        C578   1.412       .  A
C577       Br583   1.922       .  S
C578        C579   1.418       .  A
C579        C580   1.401       .  A
C579       Br588   1.938       .  S
C580       Br584   1.933       .  S
C589        C590   1.419       .  A
C589        C594   1.419       .  A
C590        C591   1.407       .  A
C590       Br602   1.933       .  S
C591        C592   1.409       .  A
C591       Br606   1.935       .  S
C592        C595   1.488       .  S
C592        C593   1.406       .  A
C593        C594   1.412       .  A
C593       Br601   1.928       .  S
C594       Br605   1.932       .  S
C595        C596   1.405       .  A
C595        C600   1.408       .  A
C596        C597   1.405       .  A
C596       Br607   1.933       .  S
C597        C598   1.421   1_655  A
C597       Br603   1.937   1_655  S
C598        C599   1.415       .  A
C599        C600   1.413   1_455  A
C599       Br608   1.920       .  S
C600       Br604   1.929       .  S
C609        C610   1.411       .  A
C609        C614   1.416       .  A
C610        C611   1.411       .  A
C610       Br622   1.923       .  S
C611        C612   1.410       .  A
C611       Br626   1.929       .  S
C612        C615   1.486       .  S
C612        C613   1.408       .  A
C613        C614   1.403       .  A
C613       Br621   1.934       .  S
C614       Br625   1.936       .  S
C615        C616   1.409       .  A
C615        C620   1.413       .  A
C616        C617   1.405       .  A
C616       Br627   1.932       .  S
C617        C618   1.411       .  A
C617       Br623   1.928       .  S
C618        C619   1.407       .  A
C619        C620   1.410       .  A
C619       Br628   1.928       .  S
C620       Br624   1.928       .  S
C629        C630   1.412       .  A
C629        C634   1.418       .  A
C630        C631   1.406       .  A
C630       Br642   1.922       .  S
C631        C632   1.404       .  A
C631       Br646   1.929       .  S
C632        C635   1.477       .  S
C632        C633   1.407       .  A
C633        C634   1.403       .  A
C633       Br641   1.934       .  S
C634       Br645   1.937       .  S
C635        C636   1.407       .  A
C635        C640   1.406       .  A
C636        C637   1.403       .  A
C636       Br647   1.931       .  S
C637        C638   1.412       .  A
C637       Br643   1.930       .  S
C638        C639   1.414       .  A
C639        C640   1.406       .  A
C639       Br648   1.932       .  S
C640       Br644   1.931       .  S
C649        C650   1.417       .  A
C649        C654   1.422       .  A
C650        C651   1.410       .  A
C650       Br662   1.932       .  S
C651        C652   1.411       .  A
C651       Br666   1.933       .  S
C652        C655   1.495       .  S
C652        C653   1.407       .  A
C653        C654   1.412       .  A
C653       Br661   1.932   1_556  S
C654       Br665   1.933       .  S
C655        C656   1.407       .  A
C655        C660   1.411       .  A
C656        C657   1.408       .  A
C656       Br667   1.931       .  S
C657        C658   1.421       .  A
C657       Br663   1.936       .  S
C658        C659   1.414       .  A
C659        C660   1.413       .  A
C659       Br668   1.923       .  S
C660       Br664   1.932       .  S
C669        C670   1.415       .  A
C669        C674   1.413       .  A
C670        C671   1.411       .  A
C670       Br682   1.931       .  S
C671        C672   1.407       .  A
C671       Br686   1.927       .  S
C672        C675   1.484       .  S
C672        C673   1.410       .  A
C673        C674   1.404       .  A
C673       Br681   1.934       .  S
C674       Br685   1.934       .  S
C675        C676   1.404       .  A
C675        C680   1.406       .  A
C676        C677   1.408       .  A
C676       Br687   1.930       .  S
C677        C678   1.420       .  A
C677       Br683   1.932       .  S
C678        C679   1.415       .  A
C679        C680   1.408       .  A
C679       Br688   1.917   1_556  S
C680       Br684   1.932   1_556  S
C689        C690   1.421       .  A
C689        C694   1.418       .  A
C690        C691   1.413       .  A
C690       Br702   1.922       .  S
C691        C692   1.407       .  A
C691       Br706   1.932       .  S
C692        C695   1.491       .  S
C692        C693   1.404       .  A
C693        C694   1.408       .  A
C693       Br701   1.933       .  S
C694       Br705   1.919       .  S
C695        C696   1.405       .  A
C695        C700   1.403       .  A
C696        C697   1.410       .  A
C696       Br707   1.932       .  S
C697        C698   1.427       .  A
C697       Br703   1.936       .  S
C698        C699   1.430       .  A
C699        C700   1.412       .  A
C699       Br708   1.933       .  S
C700       Br704   1.933       .  S
C709        C710   1.417       .  A
C709        C714   1.418       .  A
C710        C711   1.407       .  A
C710       Br722   1.923       .  S
C711        C712   1.407       .  A
C711       Br726   1.934       .  S
C712        C715   1.494       .  S
C712        C713   1.408       .  A
C713        C714   1.414       .  A
C713       Br721   1.930       .  S
C714       Br725   1.920       .  S
C715        C716   1.409       .  A
C715        C720   1.410       .  A
C716        C717   1.409       .  A
C716       Br727   1.933       .  S
C717        C718   1.417       .  A
C717       Br723   1.932       .  S
C718        C719   1.417       .  A
C719        C720   1.413       .  A
C719       Br728   1.931       .  S
C720       Br724   1.930       .  S
C729        C730   1.418       .  A
C729        C734   1.415       .  A
C730        C731   1.410       .  A
C730       Br742   1.918       .  S
C731        C732   1.403       .  A
C731       Br746   1.932       .  S
C732        C735   1.483       .  S
C732        C733   1.405       .  A
C733        C734   1.405       .  A
C733       Br741   1.933       .  S
C734       Br745   1.920       .  S
C735        C736   1.404       .  A
C735        C740   1.406       .  A
C736        C737   1.410       .  A
C736       Br747   1.929   1_556  S
C737        C738   1.422       .  A
C737       Br743   1.933       .  S
C738        C739   1.424       .  A
C739        C740   1.405       .  A
C739       Br748   1.938       .  S
C740       Br744   1.937       .  S
C749        C750   1.426       .  A
C749        C754   1.434       .  A
C750        C751   1.410       .  A
C750       Br762   1.933       .  S
C751        C752   1.406       .  A
C751       Br766   1.935       .  S
C752        C755   1.490       .  S
C752        C753   1.402       .  A
C753        C754   1.413       .  A
C753       Br761   1.934   1_556  S
C754       Br765   1.937   1_556  S
C755        C756   1.410       .  A
C755        C760   1.407       .  A
C756        C757   1.414   1_545  A
C756       Br767   1.928   1_556  S
C757        C758   1.414       .  A
C757       Br763   1.922   1_556  S
C758        C759   1.420   1_565  A
C759        C760   1.404       .  A
C759       Br768   1.938       .  S
C760       Br764   1.935       .  S
C769        C770   1.413       .  A
C769        C774   1.410       .  A
C770        C771   1.406       .  A
C770       Br782   1.930       .  S
C771        C772   1.406       .  A
C771       Br786   1.931   1_556  S
C772        C775   1.480       .  S
C772        C773   1.409       .  A
C773        C774   1.406       .  A
C773       Br781   1.930       .  S
C774       Br785   1.929       .  S
C775        C776   1.406       .  A
C775        C780   1.407       .  A
C776        C777   1.402       .  A
C776       Br787   1.935       .  S
C777        C778   1.419       .  A
C777       Br783   1.939       .  S
C778        C779   1.412       .  A
C779        C780   1.409       .  A
C779       Br788   1.925   1_556  S
C780       Br784   1.928   1_556  S
C789        C790   1.423       .  A
C789        C794   1.423       .  A
C790        C791   1.410       .  A
C790       Br802   1.936       .  S
C791        C792   1.410       .  A
C791       Br806   1.936       .  S
C792        C795   1.497       .  S
C792        C793   1.407       .  A
C793        C794   1.416       .  A
C793       Br801   1.929       .  S
C794       Br805   1.932       .  S
C795        C796   1.405       .  A
C795        C800   1.408       .  A
C796        C797   1.406       .  A
C796       Br807   1.926       .  S
C797        C798   1.416       .  A
C797       Br803   1.925       .  S
C798        C799   1.417       .  A
C799        C800   1.416       .  A
C799       Br808   1.922       .  S
C800       Br804   1.928       .  S
C809        C810   1.412       .  A
C809        C814   1.417       .  A
C810        C811   1.406       .  A
C810       Br822   1.932       .  S
C811        C812   1.410       .  A
C811       Br826   1.931       .  S
C812        C815   1.484       .  S
C812        C813   1.407       .  A
C813        C814   1.407       .  A
C813       Br821   1.932       .  S
C814       Br825   1.933       .  S
C815        C816   1.405       .  A
C815        C820   1.407       .  A
C816        C817   1.407       .  A
C816       Br827   1.931       .  S
C817        C818   1.420       .  A
C817       Br823   1.934       .  S
C818        C819   1.412       .  A
C819        C820   1.406       .  A
C819       Br828   1.923       .  S
C820       Br824   1.929       .  S
C829        C830   1.419       .  A
C829        C834   1.420       .  A
C830        C831   1.407       .  A
C830       Br842   1.921   1_554  S
C831        C832   1.406       .  A
C831       Br846   1.934       .  S
C832        C835   1.492       .  S
C832        C833   1.407       .  A
C833        C834   1.413       .  A
C833       Br841   1.930       .  S
C834       Br845   1.919       .  S
C835        C836   1.409       .  A
C835        C840   1.410       .  A
C836        C837   1.408       .  A
C836       Br847   1.933       .  S
C837        C838   1.417       .  A
C837       Br843   1.933       .  S
C838        C839   1.414       .  A
C839        C840   1.412       .  A
C839       Br848   1.930       .  S
C840       Br844   1.929       .  S
C849        C850   1.415       .  A
C849        C854   1.408       .  A
C850        C851   1.405       .  A
C850       Br862   1.932   1_554  S
C851        C852   1.408       .  A
C851       Br866   1.933       .  S
C852        C855   1.488       .  S
C852        C853   1.410       .  A
C853        C854   1.412       .  A
C853       Br861   1.926       .  S
C854       Br865   1.920       .  S
C855        C856   1.407       .  A
C855        C860   1.406       .  A
C856        C857   1.411       .  A
C856       Br867   1.933       .  S
C857        C858   1.422       .  A
C857       Br863   1.934       .  S
C858        C859   1.420       .  A
C859        C860   1.410       .  A
C859       Br868   1.933       .  S
C860       Br864   1.931       .  S
C869        C870   1.409       .  A
C869        C874   1.410       .  A
C870        C871   1.412       .  A
C870       Br882   1.925       .  S
C871        C872   1.410       .  A
C871       Br886   1.926       .  S
C872        C875   1.487       .  S
C872        C873   1.409       .  A
C873        C874   1.404       .  A
C873       Br881   1.933       .  S
C874       Br885   1.927       .  S
C875        C876   1.405       .  A
C875        C880   1.405       .  A
C876        C877   1.411   1_565  A
C876       Br887   1.933       .  S
C877        C878   1.417       .  A
C877       Br883   1.918       .  S
C878        C879   1.423   1_545  A
C879        C880   1.409       .  A
C879       Br888   1.931       .  S
C880       Br884   1.934       .  S
C889        C890   1.415       .  A
C889        C894   1.422       .  A
C890        C891   1.408       .  A
C890       Br902   1.919       .  S
C891        C892   1.407       .  A
C891       Br906   1.932       .  S
C892        C895   1.485       .  S
C892        C893   1.404       .  A
C893        C894   1.408       .  A
C893       Br901   1.931       .  S
C894       Br905   1.935       .  S
C895        C896   1.408       .  A
C895        C900   1.406       .  A
C896        C897   1.405       .  A
C896       Br907   1.935       .  S
C897        C898   1.418       .  A
C897       Br903   1.936       .  S
C898        C899   1.419       .  A
C899        C900   1.410       .  A
C899       Br908   1.933       .  S
C900       Br904   1.929       .  S
C909        C910   1.411       .  A
C909        C914   1.411       .  A
C910        C911   1.408       .  A
C910       Br922   1.932       .  S
C911        C912   1.412       .  A
C911       Br926   1.932       .  S
C912        C915   1.496       .  S
C912        C913   1.411       .  A
C913        C914   1.416       .  A
C913       Br921   1.926       .  S
C914       Br925   1.925       .  S
C915        C916   1.406       .  A
C915        C920   1.406       .  A
C916        C917   1.413       .  A
C916       Br927   1.932       .  S
C917        C918   1.419       .  A
C917       Br923   1.922       .  S
C918        C919   1.420       .  A
C919        C920   1.412       .  A
C919       Br928   1.921       .  S
C920       Br924   1.931       .  S
C929        C930   1.416       .  A
C929        C934   1.418       .  A
C930        C931   1.414       .  A
C930       Br942   1.917       .  S
C931        C932   1.408       .  A
C931       Br946   1.930       .  S
C932        C935   1.495       .  S
C932        C933   1.407       .  A
C933        C934   1.410       .  A
C933       Br941   1.932       .  S
C934       Br945   1.929       .  S
C935        C936   1.413       .  A
C935        C940   1.408       .  A
C936        C937   1.413       .  A
C936       Br947   1.928       .  S
C937        C938   1.408       .  A
C937       Br943   1.927       .  S
C938        C939   1.413       .  A
C939        C940   1.411       .  A
C939       Br948   1.925       .  S
C940       Br944   1.930       .  S
C949        C950   1.413       .  A
C949        C954   1.420       .  A
C950        C951   1.405       .  A
C950       Br962   1.923       .  S
C951        C952   1.406       .  A
C951       Br966   1.934       .  S
C952        C955   1.481       .  S
C952        C953   1.405       .  A
C953        C954   1.406       .  A
C953       Br961   1.932       .  S
C954       Br965   1.934       .  S
C955        C956   1.402       .  A
C955        C960   1.407       .  A
C956        C957   1.408       .  A
C956       Br967   1.934   1_556  S
C957        C958   1.427       .  A
C957       Br963   1.934   1_556  S
C958        C959   1.420       .  A
C959        C960   1.405       .  A
C959       Br968   1.937       .  S
C960       Br964   1.933       .  S
C969        C970   1.419       .  A
C969        C974   1.417       .  A
C970        C971   1.410       .  A
C970       Br982   1.930       .  S
C971        C972   1.406       .  A
C971       Br986   1.929   1_556  S
C972        C975   1.490       .  S
C972        C973   1.409       .  A
C973        C974   1.409       .  A
C973       Br981   1.931       .  S
C974       Br985   1.932       .  S
C975        C976   1.406       .  A
C975        C980   1.408       .  A
C976        C977   1.411       .  A
C976       Br987   1.930       .  S
C977        C978   1.421       .  A
C977       Br983   1.931       .  S
C978        C979   1.414       .  A
C979        C980   1.408       .  A
C979       Br988   1.921       .  S
C980       Br984   1.934       .  S
C989        C990   1.421       .  A
C989        C994   1.419       .  A
C990        C991   1.407       .  A
C990      Br1002   1.928       .  S
C991        C992   1.405       .  A
C991      Br1006   1.936       .  S
C992        C995   1.489       .  S
C992        C993   1.408       .  A
C993        C994   1.413       .  A
C993      Br1001   1.929       .  S
C994      Br1005   1.929       .  S
C995        C996   1.406       .  A
C995       C1000   1.405       .  A
C996        C997   1.409       .  A
C996      Br1007   1.934       .  S
C997        C998   1.419       .  A
C997      Br1003   1.919       .  S
C998        C999   1.418       .  A
C999       C1000   1.411       .  A
C999      Br1008   1.922       .  S
C1000     Br1004   1.930       .  S
C1009      C1010   1.426       .  A
C1009      C1014   1.424       .  A
C1010      C1011   1.411       .  A
C1010     Br1022   1.935       .  S
C1011      C1012   1.406       .  A
C1011     Br1026   1.935       .  S
C1012      C1015   1.487       .  S
C1012      C1013   1.404       .  A
C1013      C1014   1.409       .  A
C1013     Br1021   1.932       .  S
C1014     Br1025   1.936       .  S
C1015      C1016   1.405       .  A
C1015      C1020   1.408       .  A
C1016      C1017   1.406       .  A
C1016     Br1027   1.934       .  S
C1017      C1018   1.416       .  A
C1017     Br1023   1.921       .  S
C1018      C1019   1.414       .  A
C1019      C1020   1.412       .  A
C1019     Br1028   1.917       .  S
C1020     Br1024   1.930       .  S
C1029      C1030   1.420       .  A
C1029      C1034   1.417       .  A
C1030      C1031   1.404       .  A
C1030     Br1042   1.927       .  S
C1031      C1032   1.404       .  A
C1031     Br1046   1.935       .  S
C1032      C1035   1.484       .  S
C1032      C1033   1.406       .  A
C1033      C1034   1.412       .  A
C1033     Br1041   1.931   1_556  S
C1034     Br1045   1.916   1_556  S
C1035      C1036   1.408       .  A
C1035      C1040   1.404       .  A
C1036      C1037   1.408       .  A
C1036     Br1047   1.933       .  S
C1037      C1038   1.417       .  A
C1037     Br1043   1.933       .  S
C1038      C1039   1.424       .  A
C1039      C1040   1.408       .  A
C1039     Br1048   1.933       .  S
C1040     Br1044   1.932   1_556  S
C1049      C1050   1.423       .  A
C1049      C1054   1.417       .  A
C1050      C1051   1.405   1_554  A
C1050     Br1062   1.936       .  S
C1051      C1052   1.404       .  A
C1051     Br1066   1.934       .  S
C1052      C1055   1.484       .  S
C1052      C1053   1.405       .  A
C1053      C1054   1.411   1_556  A
C1053     Br1061   1.931       .  S
C1054     Br1065   1.915   1_554  S
C1055      C1056   1.409       .  A
C1055      C1060   1.406   1_556  A
C1056      C1057   1.405       .  A
C1056     Br1067   1.934       .  S
C1057      C1058   1.414       .  A
C1057     Br1063   1.931       .  S
C1058      C1059   1.416       .  A
C1059      C1060   1.410   1_556  A
C1059     Br1068   1.931   1_556  S
C1060     Br1064   1.928       .  S
C1069      C1070   1.412       .  A
C1069      C1074   1.409       .  A
C1070      C1071   1.404       .  A
C1070     Br1082   1.932       .  S
C1071      C1072   1.407       .  A
C1071     Br1086   1.932   1_556  S
C1072      C1075   1.479       .  S
C1072      C1073   1.411       .  A
C1073      C1074   1.405       .  A
C1073     Br1081   1.931       .  S
C1074     Br1085   1.930       .  S
C1075      C1076   1.409       .  A
C1075      C1080   1.406       .  A
C1076      C1077   1.408       .  A
C1076     Br1087   1.929   1_556  S
C1077      C1078   1.409       .  A
C1077     Br1083   1.925   1_556  S
C1078      C1079   1.417       .  A
C1079      C1080   1.401       .  A
C1079     Br1088   1.939       .  S
C1080     Br1084   1.934       .  S
C1089      C1090   1.410       .  A
C1089      C1094   1.409       .  A
C1090      C1091   1.412       .  A
C1090     Br1102   1.928       .  S
C1091      C1092   1.411       .  A
C1091     Br1106   1.927       .  S
C1092      C1095   1.488       .  S
C1092      C1093   1.411       .  A
C1093      C1094   1.404       .  A
C1093     Br1101   1.933       .  S
C1094     Br1105   1.934       .  S
C1095      C1096   1.406   1_556  A
C1095      C1100   1.405   1_565  A
C1096      C1097   1.409   1_565  A
C1096     Br1107   1.932       .  S
C1097      C1098   1.417   1_554  A
C1097     Br1103   1.920   1_545  S
C1098      C1099   1.418       .  A
C1099      C1100   1.410       .  A
C1099     Br1108   1.922       .  S
C1100     Br1104   1.933       .  S
C1109      C1110   1.411       .  A
C1109      C1114   1.408       .  A
C1110      C1111   1.405       .  A
C1110     Br1122   1.931       .  S
C1111      C1112   1.410       .  A
C1111     Br1126   1.932       .  S
C1112      C1115   1.488       .  S
C1112      C1113   1.413       .  A
C1113      C1114   1.408       .  A
C1113     Br1121   1.930       .  S
C1114     Br1125   1.929       .  S
C1115      C1116   1.406       .  A
C1115      C1120   1.407       .  A
C1116      C1117   1.406       .  A
C1116     Br1127   1.936       .  S
C1117      C1118   1.421       .  A
C1117     Br1123   1.931       .  S
C1118      C1119   1.416   1_556  A
C1119      C1120   1.411   1_554  A
C1119     Br1128   1.917       .  S
C1120     Br1124   1.931   1_556  S
C1129      C1130   1.410       .  A
C1129      C1134   1.417       .  A
C1130      C1131   1.409       .  A
C1130     Br1142   1.930       .  S
C1131      C1132   1.412       .  A
C1131     Br1146   1.930       .  S
C1132      C1135   1.490       .  S
C1132      C1133   1.408       .  A
C1133      C1134   1.410       .  A
C1133     Br1141   1.931       .  S
C1134     Br1145   1.931       .  S
C1135      C1136   1.407       .  A
C1135      C1140   1.408       .  A
C1136      C1137   1.406       .  A
C1136     Br1147   1.934       .  S
C1137      C1138   1.420       .  A
C1137     Br1143   1.937       .  S
C1138      C1139   1.415       .  A
C1139      C1140   1.412       .  A
C1139     Br1148   1.922       .  S
C1140     Br1144   1.930       .  S
C1149      C1150   1.418       .  A
C1149      C1154   1.420       .  A
C1150      C1151   1.410       .  A
C1150     Br1162   1.932       .  S
C1151      C1152   1.405       .  A
C1151     Br1166   1.929       .  S
C1152      C1155   1.483       .  S
C1152      C1153   1.408       .  A
C1153      C1154   1.404       .  A
C1153     Br1161   1.936       .  S
C1154     Br1165   1.937       .  S
C1155      C1156   1.408       .  A
C1155      C1160   1.404       .  A
C1156      C1157   1.409       .  A
C1156     Br1167   1.931       .  S
C1157      C1158   1.412       .  A
C1157     Br1163   1.922       .  S
C1158      C1159   1.417       .  A
C1159      C1160   1.404       .  A
C1159     Br1168   1.934       .  S
C1160     Br1164   1.930       .  S
C1169      C1170   1.417       .  A
C1169      C1174   1.411       .  A
C1170      C1171   1.406       .  A
C1170     Br1182   1.929       .  S
C1171      C1172   1.407       .  A
C1171     Br1186   1.933       .  S
C1172      C1175   1.492       .  S
C1172      C1173   1.411       .  A
C1173      C1174   1.413       .  A
C1173     Br1181   1.929       .  S
C1174     Br1185   1.920   1_554  S
C1175      C1176   1.408       .  A
C1175      C1180   1.407       .  A
C1176      C1177   1.408       .  A
C1176     Br1187   1.928       .  S
C1177      C1178   1.419       .  A
C1177     Br1183   1.936       .  S
C1178      C1179   1.421       .  A
C1179      C1180   1.412       .  A
C1179     Br1188   1.933       .  S
C1180     Br1184   1.930       .  S
C1189      C1190   1.422       .  A
C1189      C1194   1.417       .  A
C1190      C1191   1.411       .  A
C1190     Br1202   1.923   1_554  S
C1191      C1192   1.407       .  A
C1191     Br1206   1.934       .  S
C1192      C1195   1.495       .  S
C1192      C1193   1.407       .  A
C1193      C1194   1.412       .  A
C1193     Br1201   1.931       .  S
C1194     Br1205   1.919       .  S
C1195      C1196   1.411       .  A
C1195      C1200   1.410       .  A
C1196      C1197   1.412       .  A
C1196     Br1207   1.931       .  S
C1197      C1198   1.415       .  A
C1197     Br1203   1.931       .  S
C1198      C1199   1.415       .  A
C1199      C1200   1.411       .  A
C1199     Br1208   1.932       .  S
C1200     Br1204   1.931       .  S
C1209      C1210   1.416       .  A
C1209      C1214   1.414       .  A
C1210      C1211   1.411       .  A
C1210     Br1222   1.930       .  S
C1211      C1212   1.406       .  A
C1211     Br1226   1.927       .  S
C1212      C1215   1.485       .  S
C1212      C1213   1.410       .  A
C1213      C1214   1.405       .  A
C1213     Br1221   1.937       .  S
C1214     Br1225   1.929       .  S
C1215      C1216   1.405       .  A
C1215      C1220   1.406       .  A
C1216      C1217   1.404       .  A
C1216     Br1227   1.931       .  S
C1217      C1218   1.420       .  A
C1217     Br1223   1.937       .  S
C1218      C1219   1.413       .  A
C1219      C1220   1.411       .  A
C1219     Br1228   1.920       .  S
C1220     Br1224   1.929       .  S
C1229      C1230   1.414       .  A
C1229      C1234   1.420       .  A
C1230      C1231   1.413   1_565  A
C1230     Br1242   1.922       .  S
C1231      C1232   1.409       .  A
C1231     Br1246   1.929       .  S
C1232      C1235   1.491       .  S
C1232      C1233   1.406       .  A
C1233      C1234   1.406   1_545  A
C1233     Br1241   1.932       .  S
C1234     Br1245   1.938       .  S
C1235      C1236   1.411       .  A
C1235      C1240   1.411       .  A
C1236      C1237   1.406       .  A
C1236     Br1247   1.933       .  S
C1237      C1238   1.411       .  A
C1237     Br1243   1.933       .  S
C1238      C1239   1.412       .  A
C1239      C1240   1.414       .  A
C1239     Br1248   1.927       .  S
C1240     Br1244   1.927       .  S
