geometry optimzed in LAMMPS
_audit_creation_date              2020-11-30 
_audit_creation_method            'lammps2cif' 
_symmetry_space_group_name_H-M    'P1' 
_symmetry_Int_Tables_number       1 
_symmetry_cell_setting            triclinic 
loop_ 
_symmetry_equiv_pos_as_xyz 
  x,y,z 
_cell_length_a                    49.08374257 
_cell_length_b                    48.71893226910306 
_cell_length_c                    30.642971591281956 
_cell_angle_alpha                 90.12845665244303 
_cell_angle_beta                  90.00248515041388 
_cell_angle_gamma                 90.15529363127612 
loop_ 
_atom_site_label 
_atom_site_type_symbol 
_atom_site_fract_x 
_atom_site_fract_y 
_atom_site_fract_z 
_atom_site_charge 
C1          C  0.88442917  0.72211077  0.46012702     0.86400
C2          C  0.86228932  0.74419641  0.46011913    -0.53800
C3          C  0.86275689  0.76126707  0.99539242     0.09300
C4          C  0.88646835  0.75508104  0.02764362     0.20300
C5          C  0.91085789  0.73874178  0.46333276    -0.54500
C6          C  0.91231725  0.75569744  0.99844693     0.09400
C7          C  0.88174805  0.70747377  0.50390681    -0.54100
C8          C  0.88300363  0.72430881  0.03940342     0.10000
H9          H  0.84710346  0.74609222  0.43451574     0.14500
H10         H  0.88730865  0.76904782  0.05629819     0.00300
H11         H  0.92665890  0.73889553  0.43867354     0.14800
H12         H  0.87977098  0.68531287  0.00668694     0.14600
O13         O  0.89127869  0.58430021  0.28851547    -0.74500
O14         O  0.89752837  0.64287819  0.20536831    -0.74500
O15         O  0.89780466  0.63898532  0.29353647    -0.74600
O16         O  0.89085467  0.58796071  0.20071331    -0.74600
O17         O  0.84580969  0.59326005  0.20132171    -0.74600
O18         O  0.85276257  0.64428456  0.29488471    -0.74500
O19         O  0.85255717  0.64853602  0.20640028    -0.74500
O20         O  0.84626394  0.58941879  0.28952558    -0.74600
Ni21       Ni  0.89594061  0.61340269  0.24692799     1.25400
Ni22       Ni  0.84772055  0.61912502  0.24799058     1.25400
C23         C  0.86780708  0.57722767  0.30313788     0.87700
C24         C  0.87615014  0.65530323  0.19174577     0.87600
C25         C  0.87642514  0.64953454  0.31032605     0.87600
C26         C  0.86721804  0.58186950  0.18598018     0.87800
C27         C  0.84481981  0.19636779  0.04194011     0.86400
C28         C  0.82880040  0.16943826  0.04199617    -0.53800
C29         C  0.83485143  0.15181511  0.00854244     0.09300
C30         C  0.85668575  0.16381841  0.47676148     0.20300
C31         C  0.87487395  0.18812160  0.03977274    -0.54500
C32         C  0.88122576  0.17102210  0.00638790     0.09400
C33         C  0.83898880  0.20884196  0.99689751    -0.54100
C34         C  0.84523786  0.19204653  0.46270449     0.10000
H35         H  0.81346116  0.16509986  0.06657436     0.14500
H36         H  0.86228644  0.15017442  0.44920692     0.00300
H37         H  0.88982886  0.19445965  0.06396031     0.14800
H38         H  0.83205642  0.22957295  0.99116354     0.14600
O39         O  0.86991517  0.26886404  0.29522127    -0.74500
O40         O  0.87299286  0.32684407  0.21105501    -0.74500
O41         O  0.87508878  0.32412651  0.29920750    -0.74600
O42         O  0.86711341  0.27163861  0.20729558    -0.74600
O43         O  0.82191333  0.27681550  0.20994855    -0.74600
O44         O  0.82986528  0.32764445  0.30269055    -0.74500
O45         O  0.82799018  0.33172526  0.21460510    -0.74500
O46         O  0.82478221  0.27253046  0.29813478    -0.74600
Ni47       Ni  0.87289343  0.29769633  0.25306505     1.25400
Ni48       Ni  0.82453085  0.30231187  0.25651860     1.25400
C49         C  0.84697915  0.26106900  0.31083991     0.87700
C50         C  0.85116934  0.33893236  0.19871783     0.87600
C51         C  0.85355056  0.33437332  0.31625091     0.87600
C52         C  0.84315413  0.26606158  0.19328470     0.87800
O53         O  0.83947803  0.48559772  0.45347467    -0.74500
O54         O  0.83503167  0.43294926  0.04641547    -0.74500
O55         O  0.83848004  0.48836013  0.04173802    -0.74600
O56         O  0.83650815  0.43012075  0.45831074    -0.74600
O57         O  0.88186927  0.42790498  0.45991798    -0.74600
O58         O  0.88371463  0.48539260  0.04316915    -0.74500
O59         O  0.88024328  0.43014897  0.04809004    -0.74500
O60         O  0.88471426  0.48315905  0.45516711    -0.74600
Ni61       Ni  0.83574449  0.45934551  0.99990793     1.25400
Ni62       Ni  0.88422600  0.45656271  0.00166452     1.25400
C63         C  0.86279817  0.49318381  0.43887260     0.87700
C64         C  0.85681397  0.42273248  0.06267511     0.87600
C65         C  0.86162561  0.49649660  0.05618360     0.87600
C66         C  0.85895778  0.41951674  0.44532982     0.87800
C67         C  0.72831024  0.85083435  0.03781409     0.86400
C68         C  0.75296613  0.83180710  0.03727279    -0.53800
C69         C  0.77096926  0.83628690  0.00405294     0.09300
C70         C  0.76228524  0.86025674  0.47348377     0.20300
C71         C  0.74010641  0.87991638  0.03752002    -0.54500
C72         C  0.75794953  0.88511633  0.00458282     0.09400
C73         C  0.71562459  0.84740079  0.99226947    -0.54100
C74         C  0.73312346  0.85220146  0.45858455     0.10000
H75         H  0.75586961  0.81584115  0.06152071     0.14500
H76         H  0.77664632  0.86419522  0.44620396     0.00300
H77         H  0.73515971  0.89509833  0.06231102     0.14800
H78         H  0.69460604  0.84212362  0.98575667     0.14600
O79         O  0.65624324  0.87022108  0.29217765    -0.74500
O80         O  0.59753387  0.87224806  0.20956000    -0.74500
O81         O  0.60129061  0.87360152  0.29786394    -0.74600
O82         O  0.65237324  0.86853003  0.20430504    -0.74600
O83         O  0.64886373  0.82280413  0.20560208    -0.74600
O84         O  0.59852080  0.82802462  0.29987980    -0.74500
O85         O  0.59409504  0.82673092  0.21144123    -0.74500
O86         O  0.65359563  0.82464774  0.29405403    -0.74600
Ni87       Ni  0.62696467  0.87274269  0.25093039     1.25400
Ni88       Ni  0.62368904  0.82390537  0.25289987     1.25400
C89         C  0.66467825  0.84718484  0.30699433     0.87700
C90         C  0.58617856  0.84997528  0.19637345     0.87600
C91         C  0.59138518  0.85158575  0.31434773     0.87600
C92         C  0.65862581  0.84484925  0.18934117     0.87800
C93         C  0.20244020  0.89178884  0.45624140     0.86400
C94         C  0.17971511  0.87020760  0.45627572    -0.53800
C95         C  0.16347102  0.86999645  0.99256770     0.09300
C96         C  0.17104316  0.89348527  0.02540279     0.20300
C97         C  0.18702571  0.91887003  0.46172477    -0.54500
C98         C  0.17078463  0.92019174  0.99757782     0.09400
C99         C  0.21767961  0.88786566  0.49931562    -0.54100
C100        C  0.20164616  0.88890765  0.03557423     0.10000
H101        H  0.17677064  0.85612569  0.42917480     0.14500
H102        H  0.15807764  0.89437806  0.05500014     0.00300
H103        H  0.18707397  0.93539853  0.43825912     0.14800
H104        H  0.23962348  0.88511058  0.00109081     0.14600
O105        O  0.34037490  0.89704275  0.28781800    -0.74500
O106        O  0.28330444  0.90255362  0.20153619    -0.74500
O107        O  0.28574617  0.90309205  0.29002915    -0.74600
O108        O  0.33806501  0.89674223  0.19933783    -0.74600
O109        O  0.33311380  0.85132055  0.19955177    -0.74600
O110        O  0.28075187  0.85766552  0.29140863    -0.74500
O111        O  0.27820898  0.85719897  0.20258210    -0.74500
O112        O  0.33550684  0.85165192  0.28819713    -0.74600
Ni113      Ni  0.31202144  0.90144337  0.24463045     1.25400
Ni114      Ni  0.30668874  0.85283482  0.24543048     1.25400
C115        C  0.34734325  0.87340136  0.30252957     0.87700
C116        C  0.27141575  0.88074718  0.18741201     0.87600
C117        C  0.27488544  0.88153469  0.30622980     0.87600
C118        C  0.34426014  0.87308764  0.18427188     0.87800
O119        O  0.49177417  0.83678640  0.04459609    -0.74500
O120        O  0.43915329  0.84255884  0.45142552    -0.74500
O121        O  0.49440037  0.83801381  0.45641945    -0.74600
O122        O  0.43670317  0.84118717  0.03958706    -0.74600
O123        O  0.44043759  0.88671787  0.04140054    -0.74600
O124        O  0.49816437  0.88352968  0.45815377    -0.74500
O125        O  0.44290937  0.88803722  0.45337193    -0.74500
O126        O  0.49542359  0.88227401  0.04627073    -0.74600
Ni127      Ni  0.46538185  0.83802501  0.99786811     1.25400
Ni128      Ni  0.46936981  0.88674280  0.99983023     1.25400
C129        C  0.50244623  0.85864423  0.06080663     0.87700
C130        C  0.43194668  0.86629015  0.43737383     0.87600
C131        C  0.50608363  0.86016814  0.44387123     0.87600
C132        C  0.42895071  0.86451056  0.05417450     0.87800
C133        C  0.71658247  0.04363538  0.46541504     0.86400
C134        C  0.74133100  0.06268860  0.46356720    -0.53800
C135        C  0.75918088  0.06029797  0.99761636     0.09300
C136        C  0.74995555  0.03812317  0.03121028     0.20300
C137        C  0.72809334  0.01460654  0.47020335    -0.54500
C138        C  0.74591000  0.01171095  0.00375252     0.09400
C139        C  0.70346486  0.04932700  0.50995455    -0.54100
C140        C  0.72075637  0.04664712  0.04442418     0.10000
H141        H  0.74368635  0.07773628  0.43775269     0.14500
H142        H  0.76394260  0.03506715  0.05913077     0.00300
H143        H  0.72352799  0.99787132  0.44788333     0.14800
H144        H  0.68202279  0.05358396  0.01491254     0.14600
O145        O  0.58392323  0.03536687  0.29406461    -0.74500
O146        O  0.64212838  0.03171417  0.21038398    -0.74500
O147        O  0.63875774  0.03247667  0.29822233    -0.74600
O148        O  0.58716911  0.03456144  0.20587789    -0.74600
O149        O  0.58995166  0.08019549  0.20478599    -0.74600
O150        O  0.64054219  0.07831995  0.29873098    -0.74500
O151        O  0.64487533  0.07733147  0.21036386    -0.74500
O152        O  0.58599111  0.08099498  0.29295765    -0.74600
Ni153      Ni  0.61290967  0.03190636  0.25211058     1.25400
Ni154      Ni  0.61546343  0.08084694  0.25159534     1.25400
C155        C  0.57549212  0.05876033  0.30781023     0.87700
C156        C  0.65316943  0.05391166  0.19647864     0.87600
C157        C  0.64762811  0.05505607  0.31409895     0.87600
C158        C  0.57998368  0.05772697  0.19008416     0.87800
C159        C  0.19355124  0.07853808  0.04629795     0.86400
C160        C  0.16967551  0.09891424  0.04529604    -0.53800
C161        C  0.15241867  0.09583337  0.01050755     0.09300
C162        C  0.16079630  0.07180121  0.47955958     0.20300
C163        C  0.17952352  0.05055139  0.04474279    -0.54500
C164        C  0.16283077  0.04652374  0.00999992     0.09400
C165        C  0.20749028  0.08185591  0.00194202    -0.54100
C166        C  0.19077065  0.07813648  0.46689853     0.10000
H167        H  0.16550872  0.11381455  0.07057814     0.14500
H168        H  0.14698835  0.06880299  0.45123632     0.00300
H169        H  0.18235248  0.03511968  0.06989255     0.14800
H170        H  0.22919834  0.08573593  0.99849500     0.14600
O171        O  0.32724298  0.04823847  0.21646930    -0.74500
O172        O  0.26850264  0.05054226  0.29963516    -0.74500
O173        O  0.27255761  0.05186054  0.21084644    -0.74600
O174        O  0.32358574  0.04713062  0.30460619    -0.74600
O175        O  0.32666492  0.09275688  0.30571722    -0.74600
O176        O  0.27494072  0.09756401  0.21372173    -0.74500
O177        O  0.27163311  0.09606645  0.30214323    -0.74500
O178        O  0.32985581  0.09383096  0.21770778    -0.74600
Ni179      Ni  0.29779084  0.04781465  0.25788090     1.25400
Ni180      Ni  0.30082180  0.09666052  0.25994753     1.25400
C181        C  0.33821599  0.07061798  0.20306169     0.87700
C182        C  0.26053593  0.07363508  0.31524068     0.87600
C183        C  0.26575393  0.07552422  0.19640970     0.87600
C184        C  0.33391103  0.06925921  0.32009270     0.87800
O185        O  0.48463497  0.08464392  0.45944862    -0.74500
O186        O  0.43189336  0.08722532  0.05230235    -0.74500
O187        O  0.48690755  0.08406362  0.04747370    -0.74600
O188        O  0.42964339  0.08775163  0.46393698    -0.74600
O189        O  0.42683716  0.04211010  0.46328472    -0.74600
O190        O  0.48413622  0.03842750  0.04665593    -0.74500
O191        O  0.42918319  0.04164411  0.05147083    -0.74500
O192        O  0.48181404  0.03906668  0.45860809    -0.74600
Ni193      Ni  0.45834213  0.08754886  0.00582213     1.25400
Ni194      Ni  0.45538735  0.03869800  0.00498844     1.25400
C195        C  0.49208008  0.06140667  0.44372369     0.87700
C196        C  0.42173300  0.06484387  0.06729383     0.87600
C197        C  0.49506524  0.06059186  0.06072948     0.87600
C198        C  0.41885429  0.06554551  0.44965203     0.87800
C199        C  0.07225061  0.73772919  0.04683913     0.86400
C200        C  0.08954365  0.76387339  0.04531238    -0.53800
C201        C  0.08522467  0.77988623  0.00956825     0.09300
C202        C  0.06337054  0.76798700  0.47781354     0.20300
C203        C  0.04267992  0.74727227  0.04197782    -0.54500
C204        C  0.03789191  0.76347076  0.00694201     0.09400
C205        C  0.07772289  0.72287567  0.00343847    -0.54100
C206        C  0.07327959  0.73845196  0.46717110     0.10000
H207        H  0.10466926  0.76890678  0.06998187     0.14500
H208        H  0.05969110  0.78093466  0.44863868     0.00300
H209        H  0.02646233  0.74197917  0.06453026     0.14800
H210        H  0.08298075  0.70130468  0.00103356     0.14600
O211        O  0.05582544  0.65867280  0.29994355    -0.74500
O212        O  0.05551162  0.60342933  0.21009991    -0.74500
O213        O  0.05503052  0.60292315  0.29850216    -0.74600
O214        O  0.05681656  0.65894490  0.21175836    -0.74600
O215        O  0.10227104  0.65746678  0.21159659    -0.74600
O216        O  0.10040200  0.60273184  0.29955422    -0.74500
O217        O  0.10079997  0.60207387  0.21119344    -0.74500
O218        O  0.10114146  0.65840117  0.30026903    -0.74600
Ni219      Ni  0.05418086  0.63102277  0.25507827     1.25400
Ni220      Ni  0.10276164  0.63016845  0.25575972     1.25400
C221        C  0.07848069  0.66783992  0.31498967     0.87700
C222        C  0.07797071  0.59358761  0.19557858     0.87600
C223        C  0.07756872  0.59357090  0.31333537     0.87600
C224        C  0.07987728  0.66709130  0.19708766     0.87800
C225        C  0.03886686  0.20746280  0.45904374     0.86400
C226        C  0.05935684  0.18379059  0.45968844    -0.53800
C227        C  0.05822201  0.16770605  0.99595629     0.09300
C228        C  0.03544601  0.17633149  0.02851944     0.20300
C229        C  0.01115632  0.19329341  0.46462773    -0.54500
C230        C  0.00901061  0.17707431  0.00047858     0.09400
C231        C  0.04337920  0.22286011  0.50200703    -0.54100
C232        C  0.04187959  0.20687248  0.03841627     0.10000
H233        H  0.07462025  0.18078710  0.43446119     0.14500
H234        H  0.03419723  0.16312631  0.05794261     0.00300
H235        H  0.99453783  0.19422594  0.44162545     0.14800
H236        H  0.04769298  0.24473121  0.00349928     0.14600
O237        O  0.04071522  0.34540594  0.28826465    -0.74500
O238        O  0.03403871  0.28673622  0.20500548    -0.74500
O239        O  0.03306801  0.29082034  0.29281012    -0.74600
O240        O  0.04178134  0.34160172  0.20045235    -0.74600
O241        O  0.08677351  0.33611773  0.20267138    -0.74600
O242        O  0.07794470  0.28420882  0.29497420    -0.74500
O243        O  0.07904187  0.28102339  0.20624164    -0.74500
O244        O  0.08556523  0.33908561  0.29107076    -0.74600
Ni245      Ni  0.03584511  0.31633175  0.24650924     1.25400
Ni246      Ni  0.08396856  0.30983366  0.24876276     1.25400
C247        C  0.06413055  0.35181475  0.30385986     0.87700
C248        C  0.05544922  0.27435455  0.19145835     0.87600
C249        C  0.05395342  0.27927704  0.30943561     0.87600
C250        C  0.06563249  0.34763582  0.18659447     0.87800
O251        O  0.09860947  0.49793901  0.04553155    -0.74500
O252        O  0.09545015  0.44249994  0.45584532    -0.74500
O253        O  0.09796899  0.49806286  0.45693008    -0.74600
O254        O  0.09583268  0.44209606  0.04420505    -0.74600
O255        O  0.05058218  0.44468470  0.04432224    -0.74600
O256        O  0.05262285  0.49998767  0.45763548    -0.74500
O257        O  0.05016340  0.44481905  0.45629728    -0.74500
O258        O  0.05335549  0.50020531  0.04576597    -0.74600
Ni259      Ni  0.09862058  0.47009805  0.00066530     1.25400
Ni260      Ni  0.05011799  0.47249345  0.00113025     1.25400
C261        C  0.07650392  0.50843813  0.06035752     0.87700
C262        C  0.07227035  0.43457552  0.44105833     0.87600
C263        C  0.07554377  0.50802259  0.44261177     0.87600
C264        C  0.07261462  0.43386526  0.05819025     0.87800
O265        O  0.14359525  0.95155454  0.04001403    -0.74500
O266        O  0.08634364  0.00511842  0.04410087    -0.74500
O267        O  0.08950008  0.95006498  0.04188095    -0.74600
O268        O  0.14098135  0.00829415  0.04226976    -0.74600
O269        O  0.13817330  0.01214861  0.46990307    -0.74600
O270        O  0.08994880  0.95017306  0.46910354    -0.74500
O271        O  0.08419218  0.00503882  0.47147956    -0.74500
O272        O  0.14398565  0.95578997  0.46758388    -0.74600
Ni273      Ni  0.11534129  0.97884845  0.04470705     1.25400
Ni274      Ni  0.11423167  0.98085051  0.46687918     1.25400
C275        C  0.15205660  0.94377162  0.00247205     0.87700
C276        C  0.07532972  0.01321488  0.00846617     0.87600
C277        C  0.08173616  0.94009324  0.00536844     0.87600
C278        C  0.14666113  0.02101953  0.00681959     0.87800
O279        O  0.91716110  0.14812643  0.46896283    -0.74500
O280        O  0.97497561  0.09592783  0.47122390    -0.74500
O281        O  0.92012222  0.09385192  0.47148630    -0.74600
O282        O  0.97333987  0.15074822  0.46922941    -0.74600
O283        O  0.97610375  0.15099270  0.04183199    -0.74600
O284        O  0.91960695  0.09615470  0.04412123    -0.74500
O285        O  0.97467704  0.09621371  0.04392545    -0.74500
O286        O  0.91948519  0.15115763  0.04152277    -0.74600
Ni287      Ni  0.94648594  0.12232857  0.46764667     1.25400
Ni288      Ni  0.94743361  0.12388618  0.04551724     1.25400
C289        C  0.90760298  0.15667244  0.00527835     0.87700
C290        C  0.98412062  0.08721000  0.00773928     0.87600
C291        C  0.91071200  0.08591689  0.00822201     0.87600
C292        C  0.98490673  0.15884905  0.00456654     0.87800
O293        O  0.94352065  0.78338377  0.03947408    -0.74500
O294        O  0.99821228  0.83936549  0.04289780    -0.74500
O295        O  0.94346191  0.83812668  0.04119157    -0.74600
O296        O  0.99973181  0.78452763  0.04017511    -0.74600
O297        O  0.00290650  0.78706459  0.46767325    -0.74600
O298        O  0.94377502  0.83799431  0.46852943    -0.74500
O299        O  0.99843159  0.84130666  0.47018704    -0.74500
O300        O  0.94684039  0.78315592  0.46687617    -0.74600
Ni301      Ni  0.97124953  0.81111228  0.04357874     1.25400
Ni302      Ni  0.97293066  0.81221807  0.46568720     1.25400
C303        C  0.93538930  0.77493932  0.00217079     0.87700
C304        C  0.00698516  0.84974945  0.00722474     0.87600
C305        C  0.93420176  0.84682926  0.00475724     0.87600
C306        C  0.01202069  0.77870917  0.00434160     0.87800
O307        O  0.77314321  0.97947372  0.04238660    -0.74500
O308        O  0.83299734  0.92955829  0.04303729    -0.74500
O309        O  0.82710137  0.98445015  0.04449717    -0.74600
O310        O  0.77857299  0.92316082  0.04038764    -0.74600
O311        O  0.78150188  0.92166331  0.46780479    -0.74600
O312        O  0.82671367  0.98609298  0.47185943    -0.74500
O313        O  0.83522587  0.93142010  0.47054122    -0.74500
O314        O  0.77276000  0.97760186  0.46960852    -0.74600
Ni315      Ni  0.80272870  0.95400242  0.04517623     1.25400
Ni316      Ni  0.80391568  0.95419762  0.46730616     1.25400
C317        C  0.76428125  0.98796858  0.00561639     0.87700
C318        C  0.84438200  0.92274760  0.00705084     0.87600
C319        C  0.83463154  0.99564944  0.00877165     0.87600
C320        C  0.77330652  0.91131874  0.00386567     0.87800
C321        C  0.86818782  0.90435534  0.00722703    -0.05500
C322        C  0.87986271  0.89650667  0.46729301    -0.33000
C323        C  0.90158073  0.87818659  0.46585312     0.36300
C324        C  0.91200480  0.86714040  0.00488160    -0.05900
C325        C  0.90074879  0.87546515  0.04489644    -0.32900
C326        C  0.87902901  0.89380319  0.04634333     0.36200
H327        H  0.87198914  0.90433444  0.43674321     0.16600
O328        O  0.91201982  0.87093871  0.42595064    -0.60400
H329        H  0.90853015  0.86750454  0.07542138     0.16600
O330        O  0.86868731  0.90119816  0.08624559    -0.60500
H331        H  0.85528664  0.88665606  0.09362859     0.43600
H332        H  0.92625386  0.88486480  0.41964535     0.43500
C333        C  0.85278339  0.01985359  0.01006059    -0.05500
C334        C  0.85528542  0.03642119  0.47287335    -0.33000
C335        C  0.87351433  0.05846765  0.47214170     0.36300
C336        C  0.88966335  0.06429947  0.00910701    -0.05900
C337        C  0.88630229  0.04851587  0.04691604    -0.32900
C338        C  0.86804025  0.02651038  0.04769817     0.36200
H339        H  0.84319948  0.03221095  0.44402237     0.16600
O340        O  0.87495673  0.07447231  0.43541466    -0.60400
H341        H  0.89845411  0.05269828  0.07570613     0.16600
O342        O  0.86632354  0.01091099  0.08480209    -0.60500
H343        H  0.85326665  0.02073018  0.10393757     0.43600
H344        H  0.88645235  0.06402943  0.41460917     0.43500
C345        C  0.05173991  0.03183021  0.00938109    -0.05500
C346        C  0.03614821  0.03496987  0.97127449    -0.33000
C347        C  0.01364421  0.05228483  0.97052021     0.36300
C348        C  0.00640116  0.06707698  0.00830054    -0.05900
C349        C  0.02172056  0.06367177  0.54664541    -0.32900
C350        C  0.04427984  0.04631285  0.54737713     0.36200
H351        H  0.04128680  0.02385743  0.94174890     0.16600
O352        O  0.99910756  0.05470576  0.93248638    -0.60400
H353        H  0.01676195  0.07514656  0.57589788     0.16600
O354        O  0.05948062  0.04461329  0.58482272    -0.60500
H355        H  0.04988685  0.03098637  0.60331202     0.43600
H356        H  0.98435258  0.04082723  0.93466171     0.43500
C357        C  0.02710545  0.87193858  0.00829508    -0.05500
C358        C  0.04368905  0.87621494  0.47163567    -0.33000
C359        C  0.06180705  0.89820583  0.47026108     0.36300
C360        C  0.06317399  0.91654624  0.00569494    -0.05900
C361        C  0.04716552  0.91180207  0.04287936    -0.32900
C362        C  0.02934130  0.88957857  0.04452199     0.36200
H363        H  0.04268778  0.86239699  0.44391451     0.16600
O364        O  0.07825534  0.90132018  0.43440875    -0.60400
H365        H  0.04813260  0.92559745  0.07062957     0.16600
O366        O  0.01325429  0.88618175  0.08072850    -0.60500
H367        H  0.02467996  0.87590772  0.10177281     0.43600
H368        H  0.09506940  0.89093949  0.44130889     0.43500
C369        C  0.06639758  0.37377094  0.33775880    -0.05500
C370        C  0.09070384  0.37684771  0.36165561    -0.33000
C371        C  0.09299039  0.39637394  0.39524894     0.36300
C372        C  0.07077790  0.41359164  0.40558277    -0.05900
C373        C  0.04661525  0.41073179  0.38133616    -0.32900
C374        C  0.04435558  0.39132145  0.34767773     0.36200
H375        H  0.10796986  0.36370389  0.35490211     0.16600
O376        O  0.11697345  0.39810039  0.41806372    -0.60400
H377        H  0.02931557  0.42382097  0.38815938     0.16600
O378        O  0.02037085  0.38976369  0.32483591    -0.60500
H379        H  0.02269336  0.40252182  0.29992356     0.43600
H380        H  0.11494342  0.38496740  0.44254243     0.43500
C381        C  0.06827275  0.36869606  0.15229411    -0.05500
C382        C  0.04441644  0.38017592  0.13505766    -0.33000
C383        C  0.04553640  0.40116468  0.10449020     0.36300
C384        C  0.07097929  0.41138479  0.09035439    -0.05900
C385        C  0.09494765  0.39957415  0.10685805    -0.32900
C386        C  0.09377093  0.37845342  0.13767114     0.36200
H387        H  0.02452676  0.37308036  0.14551034     0.16600
O388        O  0.02145253  0.41174352  0.08935384    -0.60400
H389        H  0.11473000  0.40683645  0.09619124     0.16600
O390        O  0.11765284  0.36762238  0.15312141    -0.60500
H391        H  0.12297750  0.37960777  0.17791707     0.43600
H392        H  0.01621027  0.39980906  0.06444815     0.43500
C393        C  0.04251806  0.22602550  0.41948301    -0.05500
C394        C  0.02090143  0.23166393  0.39061555    -0.33000
C395        C  0.02451554  0.24857133  0.35462153     0.36300
C396        C  0.05011831  0.26046101  0.34634958    -0.05900
C397        C  0.07176906  0.25528718  0.37494622    -0.32900
C398        C  0.06813436  0.23840930  0.41132451     0.36200
H399        H  0.00065916  0.22376765  0.39515519     0.16600
O400        O  0.00282084  0.25282122  0.32719522    -0.60400
H401        H  0.09148536  0.26476992  0.36966176     0.16600
O402        O  0.08954811  0.23476099  0.43954655    -0.60500
H403        H  0.10260549  0.22275532  0.42388958     0.43600
H404        H  0.99163966  0.26713067  0.34165939     0.43500
C405        C  0.04710696  0.21901423  0.08214003    -0.05500
C406        C  0.02587074  0.22128339  0.11250889    -0.33000
C407        C  0.02863907  0.23823958  0.14947608     0.36300
C408        C  0.05305854  0.25307417  0.15666910    -0.05900
C409        C  0.07492787  0.24904757  0.12782335    -0.32900
C410        C  0.07196490  0.23257097  0.09056936     0.36200
H411        H  0.00656989  0.21116473  0.10626324     0.16600
O412        O  0.00700882  0.24087233  0.17747541    -0.60400
H413        H  0.09394550  0.25997550  0.13268350     0.16600
O414        O  0.09328026  0.23038655  0.06179531    -0.60500
H415        H  0.09331330  0.24779095  0.04505830     0.43600
H416        H  0.01006966  0.22687804  0.20039827     0.43500
C417        C  0.07752139  0.57211388  0.16042429    -0.05500
C418        C  0.10172707  0.55866035  0.14830533    -0.33000
C419        C  0.10188739  0.53822105  0.11578833     0.36300
C420        C  0.07744521  0.53045256  0.09458905    -0.05900
C421        C  0.05333420  0.54416348  0.10632940    -0.32900
C422        C  0.05318138  0.56466052  0.13862268     0.36200
H423        H  0.12075065  0.56385811  0.16426236     0.16600
O424        O  0.12605419  0.52561492  0.10584253    -0.60400
H425        H  0.03429813  0.53907588  0.09031421     0.16600
O426        O  0.02908566  0.57765677  0.14774578    -0.60500
H427        H  0.01941611  0.56536927  0.16838097     0.43600
H428        H  0.13490589  0.53770161  0.08400359     0.43500
C429        C  0.07729686  0.57168781  0.34641936    -0.05500
C430        C  0.05344254  0.55630920  0.35286582    -0.33000
C431        C  0.05270155  0.53516467  0.38342597     0.36300
C432        C  0.07602637  0.52930716  0.40865793    -0.05900
C433        C  0.09995502  0.54444554  0.40186317    -0.32900
C434        C  0.10070911  0.56557178  0.37129646     0.36200
H435        H  0.03532770  0.56041594  0.33377956     0.16600
O436        O  0.02908252  0.52032787  0.38808199    -0.60400
H437        H  0.11806743  0.54030955  0.42094014     0.16600
O438        O  0.12440716  0.58024003  0.36648209    -0.60500
H439        H  0.12275506  0.59593450  0.38697862     0.43600
H440        H  0.03110963  0.50436396  0.36820818     0.43500
C441        C  0.07718336  0.72121863  0.08819690    -0.05500
C442        C  0.06128775  0.72652266  0.12565763    -0.33000
C443        C  0.06232455  0.70929587  0.16170522     0.36300
C444        C  0.08060274  0.68729097  0.16200721    -0.05900
C445        C  0.09921634  0.68416313  0.12770919    -0.32900
C446        C  0.09791498  0.70119846  0.09118083     0.36200
H447        H  0.04753094  0.74379587  0.12712631     0.16600
O448        O  0.04518285  0.71398403  0.19628958    -0.60400
H449        H  0.11422378  0.66789580  0.12856350     0.16600
O450        O  0.11689437  0.69787650  0.05879273    -0.60500
H451        H  0.13068064  0.71242956  0.06403343     0.43600
H452        H  0.05587895  0.72538169  0.21700207     0.43500
C453        C  0.07536459  0.72568181  0.42306324    -0.05500
C454        C  0.10035818  0.71455048  0.40959028    -0.33000
C455        C  0.10195340  0.69668682  0.37359762     0.36300
C456        C  0.07814198  0.68921069  0.35037913    -0.05900
C457        C  0.05329280  0.70146230  0.36290452    -0.32900
C458        C  0.05184199  0.71956771  0.39866847     0.36200
H459        H  0.11860976  0.71875924  0.42837426     0.16600
O460        O  0.12681981  0.68595340  0.36255426    -0.60400
H461        H  0.03464101  0.69633367  0.34580949     0.16600
O462        O  0.02693059  0.72924715  0.41174320    -0.60500
H463        H  0.02525227  0.74755931  0.39796448     0.43600
H464        H  0.12899620  0.66952707  0.38128541     0.43500
C465        C  0.36047743  0.06938087  0.16970007    -0.05500
C466        C  0.36695269  0.04411805  0.14994389    -0.33000
C467        C  0.38680689  0.04224736  0.11711481     0.36300
C468        C  0.40101134  0.06592932  0.10311401    -0.05900
C469        C  0.39493244  0.09111874  0.12346749    -0.32900
C470        C  0.37512787  0.09295887  0.15646058     0.36200
H471        H  0.35628187  0.02558231  0.15945346     0.16600
O472        O  0.39196652  0.01704306  0.09893315    -0.60400
H473        H  0.40557895  0.10964092  0.11382514     0.16600
O474        O  0.37019471  0.11805952  0.17514087    -0.60500
H475        H  0.38289318  0.11923377  0.20026069     0.43600
H476        H  0.37872903  0.01519196  0.07464013     0.43500
C477        C  0.35502110  0.06802157  0.35419246    -0.05500
C478        C  0.37170087  0.09108765  0.36107308    -0.33000
C479        C  0.39242482  0.09068156  0.39212576     0.36300
C480        C  0.39688352  0.06683020  0.41700610    -0.05900
C481        C  0.38018581  0.04374391  0.41022740    -0.32900
C482        C  0.35932014  0.04422364  0.37928669     0.36200
H483        H  0.36904104  0.10949455  0.34177018     0.16600
O484        O  0.40888467  0.11333234  0.39644250    -0.60400
H485        H  0.38314614  0.02524122  0.42918053     0.16600
O486        O  0.34334620  0.02131720  0.37395605    -0.60500
H487        H  0.32791910  0.02378774  0.39448382     0.43600
H488        H  0.39874873  0.12602497  0.41585210     0.43500
C489        C  0.12783591  0.11395774  0.00598724    -0.05500
C490        C  0.10201846  0.10298989  0.49577296    -0.33000
C491        C  0.07867478  0.11989451  0.49486136     0.36300
C492        C  0.08086036  0.14813148  0.00460327    -0.05900
C493        C  0.10654586  0.15899958  0.01466142    -0.32900
C494        C  0.12978861  0.14241854  0.01501676     0.36200
H495        H  0.09990924  0.08127877  0.48878256     0.16600
O496        O  0.05417896  0.10887623  0.48223276    -0.60400
H497        H  0.10876717  0.18083156  0.02056960     0.16600
O498        O  0.15453884  0.15454099  0.02314662    -0.60500
H499        H  0.16242130  0.15836027  0.99398014     0.43600
H500        H  0.04157824  0.11227360  0.50694658     0.43500
C501        C  0.21359562  0.07984189  0.08429050    -0.05500
C502        C  0.21198176  0.09997005  0.11731920    -0.33000
C503        C  0.22885119  0.09881147  0.15398891     0.36300
C504        C  0.24777500  0.07739268  0.15830799    -0.05900
C505        C  0.25038801  0.05803138  0.12486121    -0.32900
C506        C  0.23386873  0.05930970  0.08789248     0.36200
H507        H  0.19780618  0.11675969  0.11566629     0.16600
O508        O  0.22634858  0.11853778  0.18575051    -0.60400
H509        H  0.26555105  0.04195962  0.12710327     0.16600
O510        O  0.23765941  0.04034301  0.05521449    -0.60500
H511        H  0.23136673  0.02255513  0.06733368     0.43600
H512        H  0.21336233  0.11077348  0.20725986     0.43500
C513        C  0.20262683  0.07743879  0.42224659    -0.05500
C514        C  0.20919319  0.05206506  0.40336937    -0.33000
C515        C  0.22722440  0.05041824  0.36773794     0.36300
C516        C  0.23888029  0.07455620  0.34983297    -0.05900
C517        C  0.23085526  0.10003589  0.36745692    -0.32900
C518        C  0.21311747  0.10154369  0.40334568     0.36200
H519        H  0.20175654  0.03329424  0.41815027     0.16600
O520        O  0.23401092  0.02499012  0.35189390    -0.60400
H521        H  0.23922183  0.11895199  0.35458968     0.16600
O522        O  0.20750779  0.12665595  0.42149803    -0.60500
H523        H  0.18983700  0.13222624  0.40861887     0.43600
H524        H  0.24887685  0.01841441  0.37111846     0.43500
C525        C  0.55365134  0.05990825  0.34176609    -0.05500
C526        C  0.54037345  0.03561145  0.35462048    -0.33000
C527        C  0.52044337  0.03569774  0.38746082     0.36300
C528        C  0.51298283  0.06050604  0.40822957    -0.05900
C529        C  0.52610362  0.08485128  0.39511428    -0.32900
C530        C  0.54627274  0.08471009  0.36263629     0.36200
H531        H  0.54551162  0.01624201  0.33931383     0.16600
O532        O  0.50818810  0.01133954  0.39841639    -0.60400
H533        H  0.52099962  0.10421438  0.41046914     0.16600
O534        O  0.55866310  0.10903669  0.35188205    -0.60500
H535        H  0.57440249  0.11066638  0.37203719     0.43600
H536        H  0.52060008  0.00271033  0.41990003     0.43500
C537        C  0.55936699  0.05840239  0.15522826    -0.05500
C538        C  0.54385913  0.03472698  0.14680891    -0.33000
C539        C  0.52311317  0.03494146  0.11578493     0.36300
C540        C  0.51744001  0.05922630  0.09260830    -0.05900
C541        C  0.53337128  0.08271650  0.10026650    -0.32900
C542        C  0.55416378  0.08248433  0.13124855     0.36200
H543        H  0.54738564  0.01600578  0.16494962     0.16600
O544        O  0.50785932  0.01159586  0.10981435    -0.60400
H545        H  0.52972674  0.10146025  0.08224357     0.16600
O546        O  0.56953765  0.10576308  0.13711949    -0.60500
H547        H  0.55860295  0.11764959  0.15670964     0.43600
H548        H  0.51844598  0.00020951  0.08901662     0.43500
C549        C  0.69868348  0.04733246  0.42547217    -0.05500
C550        C  0.67508268  0.06374322  0.42725036    -0.33000
C551        C  0.65877368  0.06720648  0.39048441     0.36300
C552        C  0.66577678  0.05406029  0.35139407    -0.05900
C553        C  0.68977112  0.03894153  0.34843627    -0.32900
C554        C  0.70675764  0.03641713  0.38454462     0.36200
H555        H  0.66925140  0.07455747  0.45655518     0.16600
O556        O  0.63535160  0.08240688  0.39358326    -0.60400
H557        H  0.69554828  0.02941960  0.31780352     0.16600
O558        O  0.73113290  0.02309711  0.37936368    -0.60500
H559        H  0.74447216  0.03767526  0.37193549     0.43600
H560        H  0.64103700  0.10159427  0.38770608     0.43500
C561        C  0.71014430  0.04986258  0.08939046    -0.05500
C562        C  0.70535792  0.02648891  0.11482701    -0.33000
C563        C  0.68795070  0.02767356  0.15118016     0.36300
C564        C  0.67499637  0.05261736  0.16262007    -0.05900
C565        C  0.68169932  0.07640879  0.13897131    -0.32900
C566        C  0.69879154  0.07507789  0.10240498     0.36200
H567        H  0.71359756  0.00686287  0.10471842     0.16600
O568        O  0.68272458  0.00398835  0.17380122    -0.60400
H569        H  0.67242484  0.09590151  0.14716085     0.16600
O570        O  0.70335638  0.09833187  0.07825818    -0.60500
H571        H  0.68698075  0.10040603  0.05959781     0.43600
H572        H  0.69619960  0.00384571  0.19791174     0.43500
C573        C  0.36917330  0.87131491  0.33674690    -0.05500
C574        C  0.37967247  0.89526435  0.35639417    -0.33000
C575        C  0.39982589  0.89404474  0.38899803     0.36300
C576        C  0.41047699  0.86847676  0.40258986    -0.05900
C577        C  0.39990440  0.84453734  0.38304284    -0.32900
C578        C  0.37963482  0.84574676  0.35065366     0.36200
H579        H  0.37203281  0.91520465  0.34683892     0.16600
O580        O  0.40884147  0.91812821  0.40728216    -0.60400
H581        H  0.40738239  0.82457844  0.39281870     0.16600
O582        O  0.37014141  0.82162419  0.33315019    -0.60500
H583        H  0.38261235  0.81747625  0.30855495     0.43600
H584        H  0.39621384  0.92177624  0.43188146     0.43500
C585        C  0.36485372  0.87091581  0.14926979    -0.05500
C586        C  0.37475026  0.84498898  0.13709444    -0.33000
C587        C  0.39538684  0.84242285  0.10595954     0.36300
C588        C  0.40648132  0.86608605  0.08616669    -0.05900
C589        C  0.39603227  0.89192139  0.09750801    -0.32900
C590        C  0.37536627  0.89448363  0.12840892     0.36200
H591        H  0.36686570  0.82655416  0.15230602     0.16600
O592        O  0.40457463  0.81667297  0.09548751    -0.60400
H593        H  0.40389784  0.91040904  0.08242665     0.16600
O594        O  0.36592864  0.92025209  0.13818840    -0.60500
H595        H  0.35076856  0.92348456  0.11743944     0.43600
H596        H  0.41894223  0.81260189  0.11727498     0.43500
C597        C  0.14242289  0.84754017  0.99816195    -0.05500
C598        C  0.14812192  0.82116322  0.48123714    -0.33000
C599        C  0.12891734  0.79987339  0.48244860     0.36300
C600        C  0.10323754  0.80408502  0.00139530    -0.05900
C601        C  0.09735305  0.83008115  0.01926702    -0.32900
C602        C  0.11670439  0.85170849  0.01777930     0.36200
H603        H  0.16791081  0.81670196  0.46735929     0.16600
O604        O  0.13598700  0.77447151  0.46678454    -0.60400
H605        H  0.07793637  0.83346052  0.03518504     0.16600
O606        O  0.10999050  0.87689313  0.03453791    -0.60500
H607        H  0.11057785  0.87467041  0.06668312     0.43600
H608        H  0.12868428  0.77380356  0.43662532     0.43500
C609        C  0.22127165  0.88943124  0.41675470    -0.05500
C610        C  0.22803663  0.91241137  0.39101034    -0.33000
C611        C  0.24475361  0.90997271  0.35454002     0.36300
C612        C  0.25590774  0.88432677  0.34327598    -0.05900
C613        C  0.25002427  0.86146808  0.36938361    -0.32900
C614        C  0.23314931  0.86387102  0.40596095     0.36200
H615        H  0.22134837  0.93283225  0.39893288     0.16600
O616        O  0.25040209  0.93311000  0.33069352    -0.60400
H617        H  0.25898701  0.84168613  0.36207240     0.16600
O618        O  0.22908235  0.84127468  0.43188781    -0.60500
H619        H  0.21769860  0.82850986  0.41435439     0.43600
H620        H  0.23589352  0.93396822  0.30821557     0.43500
C621        C  0.25018710  0.88286571  0.15222776    -0.05500
C622        C  0.24409240  0.90865808  0.13390154    -0.33000
C623        C  0.22648316  0.91104342  0.09795629     0.36300
C624        C  0.21428089  0.88753644  0.07960163    -0.05900
C625        C  0.21922641  0.86193755  0.09874645    -0.32900
C626        C  0.23694598  0.85942052  0.13462780     0.36200
H627        H  0.25382075  0.92705626  0.14634659     0.16600
O628        O  0.22284899  0.93626967  0.07905649    -0.60400
H629        H  0.21040818  0.84360517  0.08439756     0.16600
O630        O  0.24167363  0.83377723  0.15130610    -0.60500
H631        H  0.25609190  0.82579388  0.13252047     0.43600
H632        H  0.20480744  0.94264303  0.08946716     0.43500
C633        C  0.56398340  0.85158603  0.16281462    -0.05500
C634        C  0.55601404  0.87743113  0.14690362    -0.33000
C635        C  0.53616638  0.88005132  0.11422515     0.36300
C636        C  0.52332014  0.85653700  0.09644428    -0.05900
C637        C  0.53101706  0.83065150  0.11269746    -0.32900
C638        C  0.55097219  0.82804522  0.14544752     0.36200
H639        H  0.56542379  0.89596310  0.15948546     0.16600
O640        O  0.52954058  0.90588586  0.10013707    -0.60400
H641        H  0.52164246  0.81217855  0.09983753     0.16600
O642        O  0.55789502  0.80227646  0.15943616    -0.60500
H643        H  0.54470879  0.79792077  0.18296192     0.43600
H644        H  0.54316745  0.91032304  0.07729566     0.43500
C645        C  0.57098054  0.85350237  0.34982568    -0.05500
C646        C  0.56271685  0.87945231  0.36484409    -0.33000
C647        C  0.54197855  0.88207807  0.39583271     0.36300
C648        C  0.52897467  0.85844358  0.41250379    -0.05900
C649        C  0.53796739  0.83249392  0.39867753    -0.32900
C650        C  0.55881110  0.82986106  0.36800937     0.36200
H651        H  0.57201675  0.89794835  0.35204448     0.16600
O652        O  0.53470467  0.90787782  0.40945199    -0.60400
H653        H  0.52869626  0.81396189  0.41140142     0.16600
O654        O  0.56653680  0.80399392  0.35541170    -0.60500
H655        H  0.58099852  0.79862675  0.37630675     0.43600
H656        H  0.52155460  0.91451477  0.38730793     0.43500
C657        C  0.71025181  0.84602810  0.07756376    -0.05500
C658        C  0.68270141  0.83796962  0.07389864    -0.33000
C659        C  0.66604469  0.83642479  0.11067858     0.36300
C660        C  0.67662965  0.84312296  0.15177433    -0.05900
C661        C  0.70411926  0.84978894  0.15637426    -0.32900
C662        C  0.72107206  0.85069610  0.11985710     0.36200
H663        H  0.67336575  0.83315420  0.04305281     0.16600
O664        O  0.63897561  0.82998832  0.10580345    -0.60400
H665        H  0.71237680  0.85464043  0.18828993     0.16600
O666        O  0.74798869  0.85751647  0.12557140    -0.60500
H667        H  0.75692530  0.84042143  0.13560688     0.43600
H668        H  0.63789428  0.80981982  0.10976810     0.43500
C669        C  0.72287624  0.84985058  0.41308746    -0.05500
C670        C  0.71190565  0.82462297  0.39928589    -0.33000
C671        C  0.69407813  0.82306224  0.36354187     0.36300
C672        C  0.68684975  0.84709941  0.34059167    -0.05900
C673        C  0.69960922  0.87201616  0.35258720    -0.32900
C674        C  0.71741069  0.87348168  0.38844631     0.36200
H675        H  0.71565958  0.80629119  0.41831763     0.16600
O676        O  0.68282404  0.79812490  0.35295039    -0.60400
H677        H  0.69473469  0.89081908  0.33552608     0.16600
O678        O  0.72703767  0.89858514  0.40177161    -0.60500
H679        H  0.74581151  0.89975528  0.38996599     0.43600
H680        H  0.66692417  0.79602487  0.37265898     0.43500
C681        C  0.85496742  0.40198156  0.09854452    -0.05500
C682        C  0.87892343  0.39188776  0.11780536    -0.33000
C683        C  0.87804527  0.37179441  0.15055035     0.36300
C684        C  0.85278762  0.36117470  0.16517663    -0.05900
C685        C  0.82880084  0.37162442  0.14650301    -0.32900
C686        C  0.82968213  0.39177414  0.11379548     0.36200
H687        H  0.89862888  0.39947436  0.10734788     0.16600
O688        O  0.90213249  0.36307786  0.16840775    -0.60400
H689        H  0.80911814  0.36394032  0.15688832     0.16600
O690        O  0.80558365  0.40077684  0.09637261    -0.60500
H691        H  0.79959514  0.41590324  0.11581744     0.43600
H692        H  0.90907362  0.34888602  0.14802048     0.43500
C693        C  0.85574491  0.35476157  0.35135651    -0.05500
C694        C  0.87900875  0.37141678  0.35406771    -0.33000
C695        C  0.88048988  0.39251910  0.38482904     0.36300
C696        C  0.85841652  0.39714363  0.41333140    -0.05900
C697        C  0.83549598  0.38003567  0.41135170    -0.32900
C698        C  0.83403519  0.35892992  0.38074259     0.36200
H699        H  0.89574224  0.36865633  0.33142423     0.16600
O700        O  0.90291493  0.40939574  0.38511532    -0.60400
H701        H  0.81864401  0.38293906  0.43373067     0.16600
O702        O  0.81159365  0.34206557  0.38057233    -0.60500
H703        H  0.79717988  0.35257861  0.36533241     0.43600
H704        H  0.91690203  0.39937221  0.40210269     0.43500
C705        C  0.78338936  0.07930021  0.00121313    -0.05500
C706        C  0.79522192  0.09032311  0.46296657    -0.33000
C707        C  0.81299301  0.11298518  0.46448817     0.36300
C708        C  0.82049639  0.12452431  0.00493810    -0.05900
C709        C  0.81134535  0.11127209  0.04320689    -0.32900
C710        C  0.79272945  0.08934331  0.04168943     0.36200
H711        H  0.78956013  0.08234328  0.43123085     0.16600
O712        O  0.82136172  0.12457270  0.42602554    -0.60400
H713        H  0.81753753  0.11881027  0.07496512     0.16600
O714        O  0.78205734  0.07979225  0.08009663    -0.60500
H715        H  0.79641948  0.06791425  0.09269210     0.43600
H716        H  0.80778726  0.13906141  0.41962579     0.43500
C717        C  0.83996006  0.24770789  0.15632179    -0.05500
C718        C  0.84755856  0.22030297  0.16021760    -0.33000
C719        C  0.84695235  0.20309399  0.12382350     0.36300
C720        C  0.83954606  0.21366247  0.08239943    -0.05900
C721        C  0.82974938  0.24078558  0.07994382    -0.32900
C722        C  0.83004123  0.25775291  0.11660101     0.36200
H723        H  0.85439532  0.21235627  0.19135518     0.16600
O724        O  0.85431624  0.17608139  0.12865946    -0.60400
H725        H  0.82251271  0.24961040  0.04995082     0.16600
O726        O  0.82157003  0.28447961  0.11292627    -0.60500
H727        H  0.83827680  0.29518475  0.10628358     0.43600
H728        H  0.87413951  0.17627812  0.13495456     0.43500
C729        C  0.84624980  0.23919538  0.34503126    -0.05500
C730        C  0.82133232  0.23217931  0.36484261    -0.33000
C731        C  0.82044621  0.21450445  0.40086339     0.36300
C732        C  0.84462420  0.20316931  0.41767238    -0.05900
C733        C  0.86925411  0.20837287  0.39616636    -0.32900
C734        C  0.87030893  0.22637001  0.36043774     0.36200
H735        H  0.80251529  0.24139568  0.35374993     0.16600
O736        O  0.79601580  0.20986663  0.42131206    -0.60400
H737        H  0.88807400  0.20015498  0.40916003     0.16600
O738        O  0.89517717  0.23200110  0.34205504    -0.60500
H739        H  0.90336935  0.24645835  0.36079934     0.43600
H740        H  0.78918003  0.19234584  0.40888109     0.43500
C741        C  0.86422801  0.51396400  0.40300913    -0.05500
C742        C  0.84021388  0.52657205  0.38796976    -0.33000
C743        C  0.84088570  0.54682335  0.35539554     0.36300
C744        C  0.86593880  0.55497938  0.33665907    -0.05900
C745        C  0.88987170  0.54199166  0.35115096    -0.32900
C746        C  0.88919556  0.52172590  0.38361334     0.36200
H747        H  0.82067861  0.52097686  0.40183118     0.16600
O748        O  0.81681098  0.55835535  0.34217357    -0.60400
H749        H  0.90943827  0.54762175  0.33744040     0.16600
O750        O  0.91325528  0.50995379  0.39634410    -0.60500
H751        H  0.91564977  0.49390565  0.37675574     0.43600
H752        H  0.81346173  0.57361860  0.36294630     0.43500
C753        C  0.86501716  0.56100504  0.15137407    -0.05500
C754        C  0.88904037  0.55098019  0.13247983    -0.33000
C755        C  0.88827325  0.53008809  0.10158495     0.36300
C756        C  0.86301612  0.51891733  0.08840019    -0.05900
C757        C  0.83889369  0.52921758  0.10673526    -0.32900
C758        C  0.83971295  0.55010169  0.13796519     0.36200
H759        H  0.90874740  0.55911134  0.14194481     0.16600
O760        O  0.91243547  0.52106698  0.08427050    -0.60400
H761        H  0.81927127  0.52087568  0.09730186     0.16600
O762        O  0.81572775  0.55894024  0.15607808    -0.60500
H763        H  0.80881832  0.57317809  0.13584899     0.43600
H764        H  0.91949109  0.50749780  0.10552402     0.43500
C765        C  0.84027485  0.78140654  0.00139211    -0.05500
C766        C  0.84430602  0.80970391  0.99455398    -0.33000
C767        C  0.82192794  0.82790947  0.99337663     0.36300
C768        C  0.79516011  0.81786953  0.99906440    -0.05900
C769        C  0.79142763  0.78951552  0.00523451    -0.32900
C770        C  0.81351040  0.77148914  0.00630369     0.36200
H771        H  0.86470359  0.81757250  0.98922786     0.13400
O772        O  0.82649508  0.85538039  0.98723250    -0.60400
H773        H  0.77110717  0.78117900  0.00942566     0.16600
O774        O  0.80877719  0.74399454  0.51245414    -0.60500
H775        H  0.80278941  0.73690732  0.48363133     0.43600
H776        H  0.82485723  0.86372989  0.01665288     0.43500
C777        C  0.88263585  0.70223601  0.42205653    -0.05500
C778        C  0.90622443  0.69378105  0.39963387    -0.33000
C779        C  0.90455522  0.67679028  0.36327464     0.36300
C780        C  0.87896750  0.66741330  0.34875723    -0.05900
C781        C  0.85558836  0.67402998  0.37286892    -0.32900
C782        C  0.85735683  0.69063439  0.40982348     0.36200
H783        H  0.92639371  0.69946491  0.41034077     0.16600
O784        O  0.92816292  0.66986212  0.34198237    -0.60400
H785        H  0.83582517  0.66598072  0.36354171     0.16600
O786        O  0.83415350  0.69553785  0.43351507    -0.60500
H787        H  0.83354202  0.68082350  0.45580374     0.43600
H788        H  0.93561198  0.65403296  0.35838336     0.43500
C789        C  0.87897141  0.67681900  0.15721237    -0.05500
C790        C  0.90311254  0.67799498  0.13249994    -0.33000
C791        C  0.90528642  0.69512387  0.09597080     0.36300
C792        C  0.88343554  0.71213562  0.08383066    -0.05900
C793        C  0.85994843  0.71246847  0.10989742    -0.32900
C794        C  0.85760826  0.69505944  0.14638975     0.36200
H795        H  0.91997293  0.66449987  0.13999205     0.16600
O796        O  0.92852742  0.69430824  0.07109793    -0.60400
H797        H  0.84278920  0.72510386  0.10053535     0.16600
O798        O  0.83392881  0.69533173  0.17009902    -0.60500
H799        H  0.83675688  0.70960108  0.19279351     0.43600
H800        H  0.92648283  0.67789854  0.05214380     0.43500
C801        C  0.88442197  0.72210477  0.96013219     0.86400
C802        C  0.86227973  0.74418814  0.96012906    -0.53800
C803        C  0.86276487  0.76127490  0.49538290     0.09300
C804        C  0.88647243  0.75508597  0.52764028     0.20300
C805        C  0.91084904  0.73873859  0.96333068    -0.54500
C806        C  0.91232412  0.75570060  0.49844956     0.09400
C807        C  0.88174641  0.70746801  0.00391277    -0.54100
C808        C  0.88300368  0.72431369  0.53939872     0.10000
H809        H  0.84709214  0.74608314  0.93452821     0.14500
H810        H  0.88731134  0.76905247  0.55629529     0.00300
H811        H  0.92664767  0.73889304  0.93866739     0.14800
H812        H  0.87977069  0.68531873  0.50667962     0.14600
O813        O  0.89127362  0.58430170  0.78850920    -0.74500
O814        O  0.89752083  0.64288123  0.70536477    -0.74500
O815        O  0.89780008  0.63898633  0.79353330    -0.74600
O816        O  0.89084487  0.58796458  0.70070696    -0.74600
O817        O  0.84579998  0.59326477  0.70131987    -0.74600
O818        O  0.85275807  0.64428611  0.79488449    -0.74500
O819        O  0.85254986  0.64854054  0.70639959    -0.74500
O820        O  0.84625899  0.58942056  0.78952457    -0.74600
Ni821      Ni  0.89593380  0.61340503  0.74692290     1.25400
Ni822      Ni  0.84771390  0.61912822  0.74798985     1.25400
C823        C  0.86780281  0.57722922  0.80313468     0.87700
C824        C  0.87614281  0.65530696  0.69174322     0.87600
C825        C  0.87642089  0.64953458  0.81032567     0.87600
C826        C  0.86720750  0.58187463  0.68597519     0.87800
C827        C  0.84480889  0.19636842  0.54193891     0.86400
C828        C  0.82878867  0.16943945  0.54199403    -0.53800
C829        C  0.83484285  0.15181435  0.50854432     0.09300
C830        C  0.85669117  0.16382087  0.97675614     0.20300
C831        C  0.87486308  0.18812123  0.53978007    -0.54500
C832        C  0.88121792  0.17102110  0.50639754     0.09400
C833        C  0.83898184  0.20884045  0.49689363    -0.54100
C834        C  0.84524161  0.19204954  0.96270468     0.10000
H835        H  0.81344653  0.16510297  0.56656844     0.14500
H836        H  0.86228952  0.15017803  0.94919893     0.00300
H837        H  0.88981588  0.19446039  0.56397034     0.14800
H838        H  0.83204902  0.22957074  0.49115494     0.14600
O839        O  0.86990532  0.26886157  0.79521226    -0.74500
O840        O  0.87298330  0.32684851  0.71105808    -0.74500
O841        O  0.87507869  0.32412352  0.79920874    -0.74600
O842        O  0.86710367  0.27164319  0.70728712    -0.74600
O843        O  0.82190349  0.27681923  0.70994218    -0.74600
O844        O  0.82985526  0.32764212  0.80269199    -0.74500
O845        O  0.82798051  0.33172905  0.71460824    -0.74500
O846        O  0.82477243  0.27252838  0.79812800    -0.74600
Ni847      Ni  0.87288360  0.29769712  0.75306165     1.25400
Ni848      Ni  0.82452097  0.30231251  0.75651634     1.25400
C849        C  0.84696948  0.26106617  0.81083115     0.87700
C850        C  0.85115988  0.33893818  0.69872399     0.87600
C851        C  0.85354062  0.33437036  0.81625248     0.87600
C852        C  0.84314431  0.26606661  0.69327641     0.87800
O853        O  0.83948266  0.48560003  0.95347894    -0.74500
O854        O  0.83502512  0.43295286  0.54641896    -0.74500
O855        O  0.83846982  0.48836365  0.54173291    -0.74600
O856        O  0.83650899  0.43012311  0.95830758    -0.74600
O857        O  0.88186998  0.42790409  0.95990818    -0.74600
O858        O  0.88370445  0.48539803  0.54317063    -0.74500
O859        O  0.88023681  0.43015517  0.54810040    -0.74500
O860        O  0.88471880  0.48315863  0.95516370    -0.74600
Ni861      Ni  0.83573882  0.45934584  0.49990695     1.25400
Ni862      Ni  0.88422044  0.45656593  0.50167108     1.25400
C863        C  0.86280226  0.49318537  0.93887352     0.87700
C864        C  0.85680714  0.42273893  0.56268412     0.87600
C865        C  0.86161438  0.49650223  0.55617976     0.87600
C866        C  0.85895703  0.41951759  0.94532324     0.87800
C867        C  0.72831485  0.85083451  0.53780654     0.86400
C868        C  0.75297001  0.83180647  0.53725743    -0.53800
C869        C  0.77097135  0.83628787  0.50403530     0.09300
C870        C  0.76228483  0.86025356  0.97349621     0.20300
C871        C  0.74011221  0.87991582  0.53751538    -0.54500
C872        C  0.75795339  0.88511743  0.50457623     0.09400
C873        C  0.71562577  0.84740414  0.49226363    -0.54100
C874        C  0.73312480  0.85219643  0.95859309     0.10000
H875        H  0.75587500  0.81583979  0.56150360     0.14500
H876        H  0.77664781  0.86419055  0.94621840     0.00300
H877        H  0.73516812  0.89509592  0.56231063     0.14800
H878        H  0.69460703  0.84212636  0.48575371     0.14600
O879        O  0.65625636  0.87022655  0.79218270    -0.74500
O880        O  0.59754858  0.87226149  0.70956203    -0.74500
O881        O  0.60130306  0.87361196  0.79786739    -0.74600
O882        O  0.65238809  0.86853855  0.70430957    -0.74600
O883        O  0.64887426  0.82281294  0.70560395    -0.74600
O884        O  0.59853038  0.82803520  0.79987964    -0.74500
O885        O  0.59410629  0.82674456  0.71144217    -0.74500
O886        O  0.65360453  0.82465330  0.79405460    -0.74600
Ni887      Ni  0.62697864  0.87275235  0.75093443     1.25400
Ni888      Ni  0.62369898  0.82391521  0.75290057     1.25400
C889        C  0.66468906  0.84718877  0.80699685     0.87700
C890        C  0.58619177  0.84998958  0.69637490     0.87600
C891        C  0.59139548  0.85159625  0.81434869     0.87600
C892        C  0.65863858  0.84485741  0.68934439     0.87800
C893        C  0.20244897  0.89178929  0.95625312     0.86400
C894        C  0.17972266  0.87020917  0.95628342    -0.53800
C895        C  0.16346501  0.86999514  0.49256175     0.09300
C896        C  0.17103669  0.89348593  0.52539397     0.20300
C897        C  0.18703511  0.91887056  0.96173697    -0.54500
C898        C  0.17077681  0.92019219  0.49756756     0.09400
C899        C  0.21768689  0.88786391  0.99932792    -0.54100
C900        C  0.20164004  0.88890959  0.53556313     0.10000
H901        H  0.17677708  0.85612982  0.92917955     0.14500
H902        H  0.15807198  0.89437892  0.55499226     0.00300
H903        H  0.18708267  0.93539823  0.93826956     0.14800
H904        H  0.23961633  0.88511290  0.50107707     0.14600
O905        O  0.34036704  0.89704962  0.78780966    -0.74500
O906        O  0.28329739  0.90255784  0.70152613    -0.74500
O907        O  0.28573867  0.90309835  0.79001983    -0.74600
O908        O  0.33805795  0.89674702  0.69933045    -0.74600
O909        O  0.33310704  0.85132520  0.69954675    -0.74600
O910        O  0.28074470  0.85767186  0.79140123    -0.74500
O911        O  0.27820222  0.85720318  0.70257412    -0.74500
O912        O  0.33549915  0.85165874  0.78819072    -0.74600
Ni913      Ni  0.31201383  0.90144895  0.74462143     1.25400
Ni914      Ni  0.30668143  0.85284034  0.74542374     1.25400
C915        C  0.34733579  0.87340847  0.80252159     0.87700
C916        C  0.27140938  0.88075099  0.68740207     0.87600
C917        C  0.27487960  0.88154109  0.80622344     0.87600
C918        C  0.34425412  0.87309202  0.68426751     0.87800
O919        O  0.49178052  0.83679232  0.54461441    -0.74500
O920        O  0.43915120  0.84256235  0.95140327    -0.74500
O921        O  0.49439854  0.83801566  0.95640082    -0.74600
O922        O  0.43670940  0.84118968  0.53960968    -0.74600
O923        O  0.44044197  0.88672072  0.54141522    -0.74600
O924        O  0.49816311  0.88353132  0.95814420    -0.74500
O925        O  0.44290779  0.88804058  0.95335774    -0.74500
O926        O  0.49542864  0.88228022  0.54628000    -0.74600
Ni927      Ni  0.46538602  0.83802577  0.49788913     1.25400
Ni928      Ni  0.46937274  0.88674388  0.49984201     1.25400
C929        C  0.50245324  0.85865182  0.56081847     0.87700
C930        C  0.43194484  0.86629467  0.93735585     0.87600
C931        C  0.50608290  0.86017085  0.94385810     0.87600
C932        C  0.42895629  0.86451364  0.55419316     0.87800
C933        C  0.71658688  0.04364234  0.96541955     0.86400
C934        C  0.74133773  0.06269227  0.96357012    -0.53800
C935        C  0.75917351  0.06029608  0.49761437     0.09300
C936        C  0.74995071  0.03811986  0.53120689     0.20300
C937        C  0.72809402  0.01461213  0.97020838    -0.54500
C938        C  0.74590907  0.01170754  0.50374831     0.09400
C939        C  0.70347079  0.04933653  0.00995931    -0.54100
C940        C  0.72075045  0.04663971  0.54441974     0.10000
H941        H  0.74369374  0.07773953  0.93775520     0.14500
H942        H  0.76393803  0.03506587  0.55912770     0.00300
H943        H  0.72352678  0.99787778  0.94788757     0.14800
H944        H  0.68201624  0.05357199  0.51490686     0.14600
O945        O  0.58392718  0.03536354  0.79406950    -0.74500
O946        O  0.64213049  0.03171065  0.71038790    -0.74500
O947        O  0.63876169  0.03247494  0.79822665    -0.74600
O948        O  0.58717123  0.03455752  0.70588217    -0.74600
O949        O  0.58995372  0.08019155  0.70478938    -0.74600
O950        O  0.64054497  0.07831825  0.79873302    -0.74500
O951        O  0.64487712  0.07732801  0.71036593    -0.74500
O952        O  0.58599401  0.08099171  0.79296112    -0.74600
Ni953      Ni  0.61291273  0.03190317  0.75211504     1.25400
Ni954      Ni  0.61546578  0.08084380  0.75159806     1.25400
C955        C  0.57549586  0.05875691  0.80781461     0.87700
C956        C  0.65317084  0.05390800  0.69648104     0.87600
C957        C  0.64763153  0.05505496  0.81410225     0.87600
C958        C  0.57998587  0.05772300  0.69008763     0.87800
C959        C  0.19355227  0.07854730  0.54629406     0.86400
C960        C  0.16967561  0.09892266  0.54529293    -0.53800
C961        C  0.15241895  0.09584180  0.51050381     0.09300
C962        C  0.16079457  0.07179203  0.97956432     0.20300
C963        C  0.17952615  0.05056002  0.54473658    -0.54500
C964        C  0.16283336  0.04653210  0.50999407     0.09400
C965        C  0.20749136  0.08186751  0.50193875    -0.54100
C966        C  0.19076898  0.07812500  0.96690238     0.10000
H967        H  0.16550891  0.11382305  0.57057489     0.14500
H968        H  0.14698620  0.06879397  0.95124151     0.00300
H969        H  0.18235601  0.03512802  0.56988568     0.14800
H970        H  0.22919927  0.08574865  0.49849242     0.14600
O971        O  0.32724068  0.04823329  0.71647169    -0.74500
O972        O  0.26849615  0.05053208  0.79963197    -0.74500
O973        O  0.27255479  0.05185467  0.71084288    -0.74600
O974        O  0.32357935  0.04712130  0.80460813    -0.74600
O975        O  0.32665645  0.09274744  0.80572496    -0.74600
O976        O  0.27493772  0.09755806  0.71372390    -0.74500
O977        O  0.27162585  0.09605625  0.80214392    -0.74500
O978        O  0.32985281  0.09382569  0.71771626    -0.74600
Ni979      Ni  0.29778631  0.04780689  0.75787997     1.25400
Ni980      Ni  0.30081634  0.09665268  0.75995234     1.25400
C981        C  0.33821433  0.07061362  0.70306849     0.87700
C982        C  0.26052879  0.07362434  0.81523898     0.87600
C983        C  0.26575136  0.07551914  0.69640882     0.87600
C984        C  0.33390309  0.06924955  0.82009863     0.87800
O985        O  0.48463447  0.08463925  0.95944337    -0.74500
O986        O  0.43189401  0.08722861  0.55231017    -0.74500
O987        O  0.48690866  0.08406555  0.54748000    -0.74600
O988        O  0.42964264  0.08774532  0.96393131    -0.74600
O989        O  0.42683831  0.04210391  0.96328010    -0.74600
O990        O  0.48413676  0.03842953  0.54665776    -0.74500
O991        O  0.42918388  0.04164750  0.55147615    -0.74500
O992        O  0.48181561  0.03906183  0.95860680    -0.74600
Ni993      Ni  0.45834285  0.08755297  0.50582873     1.25400
Ni994      Ni  0.45538688  0.03870223  0.50499171     1.25400
C995        C  0.49208132  0.06140178  0.94372176     0.87700
C996        C  0.42173408  0.06484678  0.56730149     0.87600
C997        C  0.49506637  0.06059313  0.56073316     0.87600
C998        C  0.41885334  0.06553883  0.94964843     0.87800
C999        C  0.07224902  0.73771645  0.54682972     0.86400
C1000       C  0.08954647  0.76385804  0.54530758    -0.53800
C1001       C  0.08522987  0.77987440  0.50956664     0.09300
C1002       C  0.06336717  0.76799277  0.97781701     0.20300
C1003       C  0.04267986  0.74726474  0.54196988    -0.54500
C1004       C  0.03789456  0.76346736  0.50693804     0.09400
C1005       C  0.07771906  0.72286530  0.50342672    -0.54100
C1006       C  0.07328036  0.73845855  0.96717974     0.10000
H1007       H  0.10467228  0.76888761  0.56997865     0.14500
H1008       H  0.05968552  0.78093764  0.94863976     0.00300
H1009       H  0.02646140  0.74197227  0.56452115     0.14800
H1010       H  0.08297397  0.70129377  0.50101746     0.14600
O1011       O  0.05581967  0.65867591  0.79995123    -0.74500
O1012       O  0.05550675  0.60342850  0.71011159    -0.74500
O1013       O  0.05502255  0.60292665  0.79851545    -0.74600
O1014       O  0.05681238  0.65894327  0.71176451    -0.74600
O1015       O  0.10226686  0.65746449  0.71160461    -0.74600
O1016       O  0.10039407  0.60273400  0.79956991    -0.74500
O1017       O  0.10079500  0.60207244  0.71120747    -0.74500
O1018       O  0.10113562  0.65840276  0.80027859    -0.74600
Ni1019     Ni  0.05417517  0.63102384  0.75508795     1.25400
Ni1020     Ni  0.10275590  0.63016840  0.75577181     1.25400
C1021       C  0.07847502  0.66784224  0.81499869     0.87700
C1022       C  0.07796610  0.59358712  0.69559004     0.87600
C1023       C  0.07756008  0.59357531  0.81335220     0.87600
C1024       C  0.07987332  0.66708743  0.69709190     0.87800
C1025       C  0.03887638  0.20746147  0.95905289     0.86400
C1026       C  0.05936508  0.18378797  0.95969838    -0.53800
C1027       C  0.05821694  0.16770940  0.49594714     0.09300
C1028       C  0.03544386  0.17633554  0.52851459     0.20300
C1029       C  0.01116655  0.19328840  0.96462431    -0.54500
C1030       C  0.00900561  0.17707830  0.50048134     0.09400
C1031       C  0.04338614  0.22285643  0.00201765    -0.54100
C1032       C  0.04187747  0.20687698  0.53840749     0.10000
H1033       H  0.07462852  0.18078224  0.93447209     0.14500
H1034       H  0.03419778  0.16313127  0.55793908     0.00300
H1035       H  0.99455914  0.19420762  0.94159896     0.14800
H1036       H  0.04768345  0.24473542  0.50348661     0.14600
O1037       O  0.04071211  0.34540252  0.78826903    -0.74500
O1038       O  0.03403463  0.28673450  0.70500677    -0.74500
O1039       O  0.03306886  0.29081782  0.79281233    -0.74600
O1040       O  0.04177150  0.34160109  0.70045752    -0.74600
O1041       O  0.08676406  0.33612090  0.70266890    -0.74600
O1042       O  0.07794510  0.28420716  0.79497169    -0.74500
O1043       O  0.07903823  0.28102500  0.70623646    -0.74500
O1044       O  0.08556255  0.33908465  0.79106839    -0.74600
Ni1045     Ni  0.03584119  0.31632919  0.74651252     1.25400
Ni1046     Ni  0.08396484  0.30983403  0.74875903     1.25400
C1047       C  0.06412801  0.35181241  0.80386097     0.87700
C1048       C  0.05544547  0.27435528  0.69145508     0.87600
C1049       C  0.05395467  0.27927635  0.80943891     0.87600
C1050       C  0.06562110  0.34763968  0.68659864     0.87800
O1051       O  0.09860727  0.49794579  0.54552734    -0.74500
O1052       O  0.09545362  0.44250242  0.95583615    -0.74500
O1053       O  0.09796591  0.49806580  0.95693614    -0.74600
O1054       O  0.09582366  0.44210346  0.54421601    -0.74600
O1055       O  0.05057349  0.44469519  0.54432354    -0.74600
O1056       O  0.05261944  0.49998457  0.95764607    -0.74500
O1057       O  0.05016657  0.44481546  0.95629798    -0.74500
O1058       O  0.05335356  0.50021554  0.54575663    -0.74600
Ni1059     Ni  0.09861763  0.47009997  0.50066795     1.25400
Ni1060     Ni  0.05011542  0.47250047  0.50112508     1.25400
C1061       C  0.07650198  0.50844730  0.56035017     0.87700
C1062       C  0.07227363  0.43457553  0.94105346     0.87600
C1063       C  0.07553888  0.50802454  0.94262342     0.87600
C1064       C  0.07260413  0.43387763  0.55820262     0.87800
O1065       O  0.14359643  0.95156031  0.54001173    -0.74500
O1066       O  0.08634834  0.00512942  0.54411320    -0.74500
O1067       O  0.08950146  0.95007536  0.54189355    -0.74600
O1068       O  0.14098669  0.00830165  0.54226771    -0.74600
O1069       O  0.13817473  0.01214055  0.96990420    -0.74600
O1070       O  0.08995287  0.95016313  0.96909111    -0.74500
O1071       O  0.08419395  0.00502888  0.97146677    -0.74500
O1072       O  0.14399011  0.95578343  0.96758597    -0.74600
Ni1073     Ni  0.11534491  0.97885727  0.54471226     1.25400
Ni1074     Ni  0.11423477  0.98084178  0.96687357     1.25400
C1075       C  0.15205309  0.94377592  0.50246750     0.87700
C1076       C  0.07533093  0.01322510  0.50848066     0.87600
C1077       C  0.08173491  0.94010339  0.50538268     0.87600
C1078       C  0.14666335  0.02102743  0.50681642     0.87800
O1079       O  0.91716605  0.14812439  0.96895088    -0.74500
O1080       O  0.97497896  0.09592417  0.97120541    -0.74500
O1081       O  0.92012562  0.09384868  0.97146831    -0.74600
O1082       O  0.97334520  0.15074503  0.96921886    -0.74600
O1083       O  0.97609970  0.15099987  0.54184252    -0.74600
O1084       O  0.91960320  0.09616142  0.54413903    -0.74500
O1085       O  0.97467402  0.09622101  0.54394403    -0.74500
O1086       O  0.91948053  0.15116368  0.54153427    -0.74600
Ni1087     Ni  0.94649008  0.12232565  0.96763187     1.25400
Ni1088     Ni  0.94742981  0.12389315  0.54553193     1.25400
C1089       C  0.90759727  0.15667516  0.50528944     0.87700
C1090       C  0.98411765  0.08721568  0.50775891     0.87600
C1091       C  0.91070788  0.08592264  0.50824067     0.87600
C1092       C  0.98490184  0.15885411  0.50457538     0.87800
O1093       O  0.94352760  0.78338516  0.53948060    -0.74500
O1094       O  0.99821915  0.83936749  0.54291368    -0.74500
O1095       O  0.94346862  0.83812863  0.54120953    -0.74600
O1096       O  0.99973894  0.78452882  0.54017855    -0.74600
O1097       O  0.00290136  0.78705879  0.96766958    -0.74600
O1098       O  0.94376856  0.83798717  0.96851151    -0.74500
O1099       O  0.99842547  0.84130039  0.97017096    -0.74500
O1100       O  0.94683499  0.78314895  0.96686985    -0.74600
Ni1101     Ni  0.97125658  0.81111368  0.54358973     1.25400
Ni1102     Ni  0.97292488  0.81221122  0.96567610     1.25400
C1103       C  0.93539565  0.77494323  0.50217610     0.87700
C1104       C  0.00699118  0.84975396  0.50724193     0.87600
C1105       C  0.93420875  0.84683431  0.50477682     0.87600
C1106       C  0.01202601  0.77871119  0.50434290     0.87800
O1107       O  0.77314205  0.97947262  0.54238657    -0.74500
O1108       O  0.83299981  0.92956168  0.54305032    -0.74500
O1109       O  0.82709945  0.98445342  0.54450898    -0.74600
O1110       O  0.77857576  0.92316054  0.54038695    -0.74600
O1111       O  0.78149372  0.92166238  0.96780495    -0.74600
O1112       O  0.82670965  0.98608969  0.97184774    -0.74500
O1113       O  0.83521803  0.93141644  0.97052772    -0.74500
O1114       O  0.77275498  0.97760197  0.96960873    -0.74600
Ni1115     Ni  0.80272912  0.95400364  0.54518222     1.25400
Ni1116     Ni  0.80390902  0.95419573  0.96729992     1.25400
C1117       C  0.76428242  0.98796715  0.50561478     0.87700
C1118       C  0.84438756  0.92275156  0.50706617     0.87600
C1119       C  0.83463119  0.99565366  0.50878504     0.87600
C1120       C  0.77331170  0.91131922  0.50386333     0.87800
C1121       C  0.86819431  0.90436026  0.50724662    -0.05500
C1122       C  0.87984174  0.89648551  0.96727046    -0.33000
C1123       C  0.90155886  0.87816424  0.96582919     0.36300
C1124       C  0.91201246  0.86714635  0.50490357    -0.05900
C1125       C  0.90074266  0.87545537  0.54491674    -0.32900
C1126       C  0.87902226  0.89379310  0.54636235     0.36200
H1127       H  0.87195676  0.90430050  0.93671991     0.16600
O1128       O  0.91198184  0.87089774  0.92592439    -0.60400
H1129       H  0.90851299  0.86748190  0.57544039     0.16600
O1130       O  0.86866599  0.90117179  0.58626251    -0.60500
H1131       H  0.85526038  0.88662805  0.59361606     0.43600
H1132       H  0.92620954  0.88482423  0.91958370     0.43500
C1133       C  0.85277980  0.01986003  0.51007728    -0.05500
C1134       C  0.85528985  0.03641365  0.97285553    -0.33000
C1135       C  0.87351987  0.05845934  0.97212237     0.36300
C1136       C  0.88965785  0.06430701  0.50912654    -0.05900
C1137       C  0.88629612  0.04852367  0.54693549    -0.32900
C1138       C  0.86803477  0.02651765  0.54771629     0.36200
H1139       H  0.84320333  0.03220346  0.94400515     0.16600
O1140       O  0.87496310  0.07446277  0.93539414    -0.60400
H1141       H  0.89844740  0.05270625  0.57572607     0.16600
O1142       O  0.86631749  0.01091818  0.58481997    -0.60500
H1143       H  0.85325977  0.02073689  0.60395427     0.43600
H1144       H  0.88645996  0.06401958  0.91459082     0.43500
C1145       C  0.05173971  0.03183886  0.50939911    -0.05500
C1146       C  0.03613957  0.03496871  0.47129921    -0.33000
C1147       C  0.01363446  0.05228225  0.47054684     0.36300
C1148       C  0.00639875  0.06708316  0.50832199    -0.05900
C1149       C  0.02171521  0.06365638  0.04662960    -0.32900
C1150       C  0.04427339  0.04629655  0.04736307     0.36200
H1151       H  0.04127242  0.02384949  0.44177748     0.16600
O1152       O  0.99908897  0.05469280  0.43251990    -0.60400
H1153       H  0.01675135  0.07512452  0.07588634     0.16600
O1154       O  0.05946638  0.04458831  0.08481572    -0.60500
H1155       H  0.04986847  0.03095754  0.10329225     0.43600
H1156       H  0.98433303  0.04081633  0.43471512     0.43500
C1157       C  0.02711021  0.87194419  0.50831421    -0.05500
C1158       C  0.04368191  0.87621058  0.97161395    -0.33000
C1159       C  0.06180232  0.89819968  0.97024055     0.36300
C1160       C  0.06317428  0.91655535  0.50571193    -0.05900
C1161       C  0.04716379  0.91181254  0.54289458    -0.32900
C1162       C  0.02934129  0.88958737  0.54453798     0.36200
H1163       H  0.04267714  0.86239493  0.94389020     0.16600
O1164       O  0.07824820  0.90131531  0.93438576    -0.60400
H1165       H  0.04812772  0.92561047  0.57064186     0.16600
O1166       O  0.01325083  0.88619220  0.58074091    -0.60500
H1167       H  0.02467501  0.87592092  0.60178996     0.43600
H1168       H  0.09506197  0.89093363  0.94128151     0.43500
C1169       C  0.06639621  0.37376878  0.83775902    -0.05500
C1170       C  0.09070697  0.37685263  0.86164210    -0.33000
C1171       C  0.09299557  0.39638024  0.89523295     0.36300
C1172       C  0.07078049  0.41359192  0.90557802    -0.05900
C1173       C  0.04661335  0.41072485  0.88134516    -0.32900
C1174       C  0.04435152  0.39131324  0.84768940     0.36200
H1175       H  0.10797527  0.36371372  0.85487935     0.16600
O1176       O  0.11698333  0.39811414  0.91803379    -0.60400
H1177       H  0.02931135  0.42380901  0.88817765     0.16600
O1178       O  0.02036184  0.38974804  0.82486208    -0.60500
H1179       H  0.02267469  0.40250663  0.79994768     0.43600
H1180       H  0.11496255  0.38498110  0.94251474     0.43500
C1181       C  0.06825719  0.36870868  0.65230978    -0.05500
C1182       C  0.04440082  0.38024868  0.63517440    -0.33000
C1183       C  0.04552151  0.40124175  0.60461386     0.36300
C1184       C  0.07096563  0.41140409  0.59037969    -0.05900
C1185       C  0.09493204  0.39953863  0.60679109    -0.32900
C1186       C  0.09375466  0.37841455  0.63759846     0.36200
H1187       H  0.02451098  0.37319884  0.64570354     0.16600
O1188       O  0.02143886  0.41188498  0.58958742    -0.60400
H1189       H  0.11471448  0.40675622  0.59604896     0.16600
O1190       O  0.11763538  0.36752394  0.65294658    -0.60500
H1191       H  0.12303062  0.37949622  0.67771931     0.43600
H1192       H  0.01611492  0.39995736  0.56471743     0.43500
C1193       C  0.04252638  0.22603040  0.91949973    -0.05500
C1194       C  0.02089321  0.23171372  0.89068836    -0.33000
C1195       C  0.02450428  0.24861716  0.85468957     0.36300
C1196       C  0.05011984  0.26046533  0.84636222    -0.05900
C1197       C  0.07178335  0.25526092  0.87492093    -0.32900
C1198       C  0.06815142  0.23838589  0.91130440     0.36200
H1199       H  0.00063797  0.22386424  0.89528906     0.16600
O1200       O  0.00279016  0.25290869  0.82731968    -0.60400
H1201       H  0.09150840  0.26471764  0.86960360     0.16600
O1202       O  0.08957627  0.23471505  0.93949758    -0.60500
H1203       H  0.10262501  0.22271642  0.92380838     0.43600
H1204       H  0.99165231  0.26724212  0.84181065     0.43500
C1205       C  0.04710461  0.21902016  0.58213006    -0.05500
C1206       C  0.02586911  0.22128605  0.61250081    -0.33000
C1207       C  0.02863691  0.23824075  0.64946966     0.36300
C1208       C  0.05305525  0.25307709  0.65666252    -0.05900
C1209       C  0.07492391  0.24905436  0.62781387    -0.32900
C1210       C  0.07196134  0.23257924  0.59055817     0.36200
H1211       H  0.00656920  0.21116540  0.60625596     0.16600
O1212       O  0.00700733  0.24086993  0.67747123    -0.60400
H1213       H  0.09394069  0.25998385  0.63267375     0.16600
O1214       O  0.09327601  0.23039794  0.56178221    -0.60500
H1215       H  0.09330613  0.24780261  0.54504553     0.43600
H1216       H  0.01007149  0.22687619  0.70039437     0.43500
C1217       C  0.07751771  0.57211616  0.66043053    -0.05500
C1218       C  0.10172526  0.55867008  0.64829926    -0.33000
C1219       C  0.10188653  0.53823454  0.61577578     0.36300
C1220       C  0.07744334  0.53046163  0.59458293    -0.05900
C1221       C  0.05333072  0.54416621  0.60633411    -0.32900
C1222       C  0.05317705  0.56465996  0.63863296     0.36200
H1223       H  0.12074974  0.56387115  0.66425091     0.16600
O1224       O  0.12605560  0.52563683  0.60581659    -0.60400
H1225       H  0.03429375  0.53907561  0.59032402     0.16600
O1226       O  0.02907943  0.57764987  0.64776626    -0.60500
H1227       H  0.01941516  0.56535842  0.66840281     0.43600
H1228       H  0.13489956  0.53772784  0.58397505     0.43500
C1229       C  0.07728676  0.57169551  0.84644120    -0.05500
C1230       C  0.05343430  0.55631286  0.85288178    -0.33000
C1231       C  0.05269418  0.53516794  0.88344152     0.36300
C1232       C  0.07601822  0.52931366  0.90867717    -0.05900
C1233       C  0.09994379  0.54445870  0.90189231    -0.32900
C1234       C  0.10069664  0.56558595  0.87132770     0.36200
H1235       H  0.03532088  0.56041598  0.83379004     0.16600
O1236       O  0.02907740  0.52032676  0.88809204    -0.60400
H1237       H  0.11805487  0.54032654  0.92097465     0.16600
O1238       O  0.12439119  0.58026137  0.86652404    -0.60500
H1239       H  0.12272984  0.59595649  0.88701713     0.43600
H1240       H  0.03110870  0.50436371  0.86821722     0.43500
C1241       C  0.07717852  0.72120317  0.58818584    -0.05500
C1242       C  0.06128583  0.72651226  0.62564793    -0.33000
C1243       C  0.06232242  0.70928863  0.66169902     0.36300
C1244       C  0.08059863  0.68728226  0.66200455    -0.05900
C1245       C  0.09920839  0.68414735  0.62770278    -0.32900
C1246       C  0.09790630  0.70117876  0.59116960     0.36200
H1247       H  0.04753178  0.74378772  0.62711579     0.16600
O1248       O  0.04518266  0.71398170  0.69628410    -0.60400
H1249       H  0.11421337  0.66787774  0.62855853     0.16600
O1250       O  0.11688212  0.69784971  0.55877804    -0.60500
H1251       H  0.13067139  0.71240066  0.56401150     0.43600
H1252       H  0.05587979  0.72538237  0.71699065     0.43500
C1253       C  0.07536283  0.72568450  0.92307401    -0.05500
C1254       C  0.10035588  0.71455333  0.90959819    -0.33000
C1255       C  0.10194947  0.69668925  0.87360566     0.36300
C1256       C  0.07813706  0.68921253  0.85038969    -0.05900
C1257       C  0.05328811  0.70146297  0.86291929    -0.32900
C1258       C  0.05183886  0.71956870  0.89868332     0.36200
H1259       H  0.11860849  0.71876313  0.92837909     0.16600
O1260       O  0.12681557  0.68595647  0.86255922    -0.60400
H1261       H  0.03463545  0.69633346  0.84582730     0.16600
O1262       O  0.02692789  0.72924728  0.91176180    -0.60500
H1263       H  0.02524637  0.74755777  0.89797798     0.43600
H1264       H  0.12899334  0.66953068  0.88129033     0.43500
C1265       C  0.36047797  0.06937864  0.66970968    -0.05500
C1266       C  0.36696127  0.04411524  0.64996232    -0.33000
C1267       C  0.38681609  0.04224633  0.61713375     0.36300
C1268       C  0.40101313  0.06593077  0.60312383    -0.05900
C1269       C  0.39492717  0.09112082  0.62347003    -0.32900
C1270       C  0.37512207  0.09295918  0.65646304     0.36200
H1271       H  0.35629627  0.02557742  0.65947829     0.16600
O1272       O  0.39198396  0.01704099  0.59896200    -0.60400
H1273       H  0.40556800  0.10964497  0.61382123     0.16600
O1274       O  0.37018129  0.11806077  0.67513481    -0.60500
H1275       H  0.38287957  0.11924239  0.70025372     0.43600
H1276       H  0.37874507  0.01518041  0.57467298     0.43500
C1277       C  0.35501256  0.06801212  0.85420001    -0.05500
C1278       C  0.37167278  0.09108897  0.86111174    -0.33000
C1279       C  0.39239815  0.09068408  0.89216142     0.36300
C1280       C  0.39687931  0.06682265  0.91700727    -0.05900
C1281       C  0.38019982  0.04372612  0.91019999    -0.32900
C1282       C  0.35933206  0.04420471  0.87926279     0.36200
H1283       H  0.36899671  0.10950459  0.84183576     0.16600
O1284       O  0.40883629  0.11334842  0.89651013    -0.60400
H1285       H  0.38317646  0.02521546  0.92912679     0.16600
O1286       O  0.34337773  0.02128708  0.87390262    -0.60500
H1287       H  0.32795013  0.02373196  0.89443803     0.43600
H1288       H  0.39869042  0.12601798  0.91594405     0.43500
C1289       C  0.12783516  0.11396530  0.50598253    -0.05500
C1290       C  0.10201770  0.10298329  0.99578518    -0.33000
C1291       C  0.07867514  0.11988945  0.99487689     0.36300
C1292       C  0.08085704  0.14813621  0.50459268    -0.05900
C1293       C  0.10654101  0.15900549  0.51465767    -0.32900
C1294       C  0.12978506  0.14242596  0.51501583     0.36200
H1295       H  0.09990648  0.08127190  0.98879844     0.16600
O1296       O  0.05417737  0.10887239  0.98225583    -0.60400
H1297       H  0.10876023  0.18083731  0.52056935     0.16600
O1298       O  0.15453379  0.15454992  0.52315164    -0.60500
H1299       H  0.16241679  0.15837382  0.49398706     0.43600
H1300       H  0.04158022  0.11226986  0.00697396     0.43500
C1301       C  0.21359630  0.07984877  0.58428734    -0.05500
C1302       C  0.21197742  0.09996990  0.61732602    -0.33000
C1303       C  0.22884548  0.09880678  0.65399698     0.36300
C1304       C  0.24777287  0.07739046  0.65830723    -0.05900
C1305       C  0.25039024  0.05803586  0.62485180    -0.32900
C1306       C  0.23387225  0.05931875  0.58788199     0.36200
H1307       H  0.19779792  0.11675648  0.61568114     0.16600
O1308       O  0.22633767  0.11852582  0.68576898    -0.60400
H1309       H  0.26555568  0.04196606  0.62708799     0.16600
O1310       O  0.23766652  0.04035822  0.55519608    -0.60500
H1311       H  0.23137336  0.02256802  0.56730560     0.43600
H1312       H  0.21335546  0.11075246  0.70727657     0.43500
C1313       C  0.20262372  0.07742746  0.92224957    -0.05500
C1314       C  0.20918627  0.05205388  0.90336801    -0.33000
C1315       C  0.22721553  0.05040706  0.86773378     0.36300
C1316       C  0.23887332  0.07454489  0.84983143    -0.05900
C1317       C  0.23085147  0.10002447  0.86745957    -0.32900
C1318       C  0.21311554  0.10153221  0.90335033     0.36200
H1319       H  0.20174799  0.03328313  0.91814708     0.16600
O1320       O  0.23399807  0.02497920  0.85188405    -0.60400
H1321       H  0.23921934  0.11894051  0.85459426     0.16600
O1322       O  0.20750908  0.12664413  0.92150645    -0.60500
H1323       H  0.18983884  0.13221712  0.90862905     0.43600
H1324       H  0.24886287  0.01839897  0.87110801     0.43500
C1325       C  0.55365565  0.05990428  0.84177064    -0.05500
C1326       C  0.54037980  0.03560676  0.85462680    -0.33000
C1327       C  0.52044933  0.03569261  0.88746614     0.36300
C1328       C  0.51298583  0.06050116  0.90823093    -0.05900
C1329       C  0.52610547  0.08484689  0.89511521    -0.32900
C1330       C  0.54627548  0.08470614  0.86263896     0.36200
H1331       H  0.54551981  0.01623713  0.83932239     0.16600
O1332       O  0.50819662  0.01133372  0.89842468    -0.60400
H1333       H  0.52099973  0.10421008  0.91046823     0.16600
O1334       O  0.55866497  0.10903316  0.85188440    -0.60500
H1335       H  0.57440379  0.11066390  0.87204029     0.43600
H1336       H  0.52060934  0.00270712  0.91990910     0.43500
C1337       C  0.55936950  0.05839899  0.65523073    -0.05500
C1338       C  0.54386092  0.03472428  0.64681004    -0.33000
C1339       C  0.52311469  0.03494024  0.61578614     0.36300
C1340       C  0.51744193  0.05922580  0.59261101    -0.05900
C1341       C  0.53337439  0.08271502  0.60026981    -0.32900
C1342       C  0.55416721  0.08248138  0.63125141     0.36200
H1343       H  0.54738687  0.01600266  0.66494991     0.16600
O1344       O  0.50786003  0.01159537  0.60981447    -0.60400
H1345       H  0.52973046  0.10145921  0.58224774     0.16600
O1346       O  0.56954234  0.10575926  0.63712230    -0.60500
H1347       H  0.55860824  0.11764638  0.65671118     0.43600
H1348       H  0.51844589  0.00020956  0.58901541     0.43500
C1349       C  0.69868829  0.04733985  0.92547608    -0.05500
C1350       C  0.67508482  0.06374662  0.92725409    -0.33000
C1351       C  0.65877533  0.06720700  0.89048791     0.36300
C1352       C  0.66578014  0.05406121  0.85139790    -0.05900
C1353       C  0.68977707  0.03894662  0.84844026    -0.32900
C1354       C  0.70676416  0.03642565  0.88454869     0.36200
H1355       H  0.66925152  0.07455989  0.95655866     0.16600
O1356       O  0.63535122  0.08240426  0.89358623    -0.60400
H1357       H  0.69555574  0.02942534  0.81780775     0.16600
O1358       O  0.73114130  0.02310895  0.87936885    -0.60500
H1359       H  0.74447766  0.03768820  0.87193421     0.43600
H1360       H  0.64103389  0.10159206  0.88770699     0.43500
C1361       C  0.71013891  0.04985614  0.58938570    -0.05500
C1362       C  0.70535478  0.02648326  0.61482509    -0.33000
C1363       C  0.68794998  0.02766896  0.65118093     0.36300
C1364       C  0.67499601  0.05261305  0.66262034    -0.05900
C1365       C  0.68169647  0.07640368  0.63896792    -0.32900
C1366       C  0.69878613  0.07507168  0.60239889     0.36200
H1367       H  0.71359453  0.00685709  0.60471733     0.16600
O1368       O  0.68272574  0.00398446  0.67380517    -0.60400
H1369       H  0.67242180  0.09589646  0.64715675     0.16600
O1370       O  0.70334837  0.09832465  0.57824837    -0.60500
H1371       H  0.68697160  0.10039671  0.55958920     0.43600
H1372       H  0.69620076  0.00384422  0.69791639     0.43500
C1373       C  0.36916706  0.87132223  0.83673671    -0.05500
C1374       C  0.37966431  0.89527129  0.85638807    -0.33000
C1375       C  0.39981950  0.89405099  0.88898932     0.36300
C1376       C  0.41047435  0.86848295  0.90257346    -0.05900
C1377       C  0.39990376  0.84454411  0.88302187    -0.32900
C1378       C  0.37963238  0.84575409  0.85063600     0.36200
H1379       H  0.37202161  0.91521151  0.84683845     0.16600
O1380       O  0.40883279  0.91813364  0.90727902    -0.60400
H1381       H  0.40738458  0.82458512  0.89279177     0.16600
O1382       O  0.37014121  0.82163193  0.83312792    -0.60500
H1383       H  0.38261028  0.81748900  0.80852795     0.43600
H1384       H  0.39620583  0.92177731  0.93188052     0.43500
C1385       C  0.36485080  0.87091933  0.64927130    -0.05500
C1386       C  0.37475691  0.84499312  0.63711366    -0.33000
C1387       C  0.39539760  0.84242697  0.60598629     0.36300
C1388       C  0.40648615  0.86608949  0.58618293    -0.05900
C1389       C  0.39602835  0.89192396  0.59750764    -0.32900
C1390       C  0.37535829  0.89448612  0.62840131     0.36200
H1391       H  0.36687699  0.82655916  0.65233403     0.16600
O1392       O  0.40459536  0.81667787  0.59553217    -0.60400
H1393       H  0.40388947  0.91041070  0.58241760     0.16600
O1394       O  0.36591098  0.92025347  0.63816385    -0.60500
H1395       H  0.35075051  0.92347525  0.61741136     0.43600
H1396       H  0.41896309  0.81261765  0.61732440     0.43500
C1397       C  0.14242179  0.84753487  0.49816306    -0.05500
C1398       C  0.14811764  0.82116921  0.98122881    -0.33000
C1399       C  0.12890965  0.79988253  0.98243766     0.36300
C1400       C  0.10324310  0.80407381  0.50140015    -0.05900
C1401       C  0.09735392  0.83007016  0.51926675    -0.32900
C1402       C  0.11670228  0.85170014  0.51777841     0.36200
H1403       H  0.16790528  0.81670549  0.96734848     0.16600
O1404       O  0.13597469  0.77448074  0.96676774    -0.60400
H1405       H  0.07793563  0.83344784  0.53518064     0.16600
O1406       O  0.10998435  0.87688445  0.53453395    -0.60500
H1407       H  0.11057347  0.87466362  0.56667965     0.43600
H1408       H  0.12866823  0.77381529  0.93661009     0.43500
C1409       C  0.22128057  0.88943392  0.91676672    -0.05500
C1410       C  0.22805149  0.91241736  0.89103387    -0.33000
C1411       C  0.24476328  0.90998053  0.85455724     0.36300
C1412       C  0.25590707  0.88433283  0.84327637    -0.05900
C1413       C  0.25002113  0.86147144  0.86937679    -0.32900
C1414       C  0.23315139  0.86387273  0.90596038     0.36200
H1415       H  0.22137199  0.93283908  0.89897134     0.16600
O1416       O  0.25041774  0.93312114  0.83072241    -0.60400
H1417       H  0.25897767  0.84168821  0.86205475     0.16600
O1418       O  0.22908259  0.84127356  0.93188033    -0.60500
H1419       H  0.21769807  0.82851172  0.91434332     0.43600
H1420       H  0.23590490  0.93399188  0.80825241     0.43500
C1421       C  0.25018191  0.88286867  0.65221589    -0.05500
C1422       C  0.24408747  0.90866073  0.63388848    -0.33000
C1423       C  0.22647850  0.91104561  0.59794296     0.36300
C1424       C  0.21427596  0.88753852  0.57958943    -0.05900
C1425       C  0.21922207  0.86193972  0.59873414    -0.32900
C1426       C  0.23694170  0.85942310  0.63461544     0.36200
H1427       H  0.25381569  0.92705909  0.64633310     0.16600
O1428       O  0.22284475  0.93627154  0.57904192    -0.60400
H1429       H  0.21040406  0.84360717  0.58438548     0.16600
O1430       O  0.24167035  0.83377987  0.65129313    -0.60500
H1431       H  0.25608911  0.82579745  0.63250760     0.43600
H1432       H  0.20480282  0.94264453  0.58944990     0.43500
C1433       C  0.56399695  0.85160074  0.66281618    -0.05500
C1434       C  0.55604138  0.87744405  0.64688018    -0.33000
C1435       C  0.53619208  0.88006229  0.61420368     0.36300
C1436       C  0.52333036  0.85654794  0.59645126    -0.05900
C1437       C  0.53101474  0.83066477  0.61272806    -0.32900
C1438       C  0.55097128  0.82806037  0.64547555     0.36200
H1439       H  0.56546349  0.89597552  0.65944012     0.16600
O1440       O  0.52958102  0.90589473  0.60008795    -0.60400
H1441       H  0.52162816  0.81219195  0.59989010     0.16600
O1442       O  0.55787964  0.80229325  0.65949017    -0.60500
H1443       H  0.54469511  0.79795713  0.68302746     0.43600
H1444       H  0.54320596  0.91031136  0.57723296     0.43500
C1445       C  0.57098847  0.85351203  0.84982405    -0.05500
C1446       C  0.56271684  0.87946134  0.86483384    -0.33000
C1447       C  0.54197551  0.88208493  0.89581826     0.36300
C1448       C  0.52897640  0.85844890  0.91249386    -0.05900
C1449       C  0.53797696  0.83250029  0.89867618    -0.32900
C1450       C  0.55882371  0.82986958  0.86801256     0.36200
H1451       H  0.57201251  0.89795840  0.85203012     0.16600
O1452       O  0.53469347  0.90788424  0.90942812    -0.60400
H1453       H  0.52870999  0.81396728  0.91140411     0.16600
O1454       O  0.56655762  0.80400301  0.85542496    -0.60500
H1455       H  0.58102171  0.79864393  0.87632163     0.43600
H1456       H  0.52154221  0.91451404  0.88728088     0.43500
C1457       C  0.71025901  0.84602775  0.57755930    -0.05500
C1458       C  0.68270609  0.83797775  0.57389776    -0.33000
C1459       C  0.66605126  0.83643630  0.61068004     0.36300
C1460       C  0.67664045  0.84312943  0.65177501    -0.05900
C1461       C  0.70413251  0.84978625  0.65637171    -0.32900
C1462       C  0.72108342  0.85069002  0.61985171     0.36200
H1463       H  0.67336657  0.83316777  0.54305288     0.16600
O1464       O  0.63898001  0.83000837  0.60580816    -0.60400
H1465       H  0.71239344  0.85463324  0.68828682     0.16600
O1466       O  0.74800242  0.85750214  0.62556234    -0.60500
H1467       H  0.75693437  0.84040444  0.63559762     0.43600
H1468       H  0.63789264  0.80984027  0.60977268     0.43500
C1469       C  0.72288136  0.84984462  0.91309465    -0.05500
C1470       C  0.71190383  0.82461933  0.89929719    -0.33000
C1471       C  0.69407851  0.82306133  0.86355074     0.36300
C1472       C  0.68685982  0.84709898  0.84059408    -0.05900
C1473       C  0.69962764  0.87201231  0.85258403    -0.32900
C1474       C  0.71742713  0.87347500  0.88844558     0.36200
H1475       H  0.71564996  0.80628815  0.91833437     0.16600
O1476       O  0.68281594  0.79812698  0.85296449    -0.60400
H1477       H  0.69476097  0.89081512  0.83551681     0.16600
O1478       O  0.72706265  0.89857620  0.90176556    -0.60500
H1479       H  0.74583618  0.89973925  0.88995800     0.43600
H1480       H  0.66691342  0.79603563  0.87266968     0.43500
C1481       C  0.85495975  0.40199119  0.59855785    -0.05500
C1482       C  0.87891505  0.39190218  0.61782724    -0.33000
C1483       C  0.87803623  0.37180901  0.65057255     0.36300
C1484       C  0.85277857  0.36118408  0.66518904    -0.05900
C1485       C  0.82879233  0.37163133  0.64651038    -0.32900
C1486       C  0.82967427  0.39178157  0.61380391     0.36200
H1487       H  0.89862048  0.39949200  0.60737564     0.16600
O1488       O  0.90212252  0.36309777  0.66843988    -0.60400
H1489       H  0.80910960  0.36394435  0.65689010     0.16600
O1490       O  0.80557631  0.40078199  0.59637631    -0.60500
H1491       H  0.79958585  0.41590890  0.61581843     0.43600
H1492       H  0.90907184  0.34890987  0.64805269     0.43500
C1493       C  0.85573582  0.35475929  0.85135655    -0.05500
C1494       C  0.87900356  0.37140864  0.85407137    -0.33000
C1495       C  0.88048701  0.39251218  0.88482969     0.36300
C1496       C  0.85841214  0.39714409  0.91332577    -0.05900
C1497       C  0.83548718  0.38004217  0.91134238    -0.32900
C1498       C  0.83402386  0.35893522  0.88073571     0.36200
H1499       H  0.89573879  0.36864268  0.83143290     0.16600
O1500       O  0.90291655  0.40938264  0.88511931    -0.60400
H1501       H  0.81863365  0.38295118  0.93371646     0.16600
O1502       O  0.81157741  0.34207749  0.88056096    -0.60500
H1503       H  0.79716863  0.35259376  0.86531423     0.43600
H1504       H  0.91689937  0.39935568  0.90210926     0.43500
C1505       C  0.78337986  0.07930028  0.50121359    -0.05500
C1506       C  0.79522776  0.09032571  0.96296493    -0.33000
C1507       C  0.81299808  0.11298840  0.96448574     0.36300
C1508       C  0.82048738  0.12452370  0.50494054    -0.05900
C1509       C  0.81133129  0.11127478  0.54320923    -0.32900
C1510       C  0.79271471  0.08934674  0.54169064     0.36200
H1511       H  0.78956338  0.08234791  0.93122913     0.16600
O1512       O  0.82136159  0.12457948  0.92602287    -0.60400
H1513       H  0.81751982  0.11881518  0.57496790     0.16600
O1514       O  0.78203605  0.07980033  0.58009626    -0.60500
H1515       H  0.79639671  0.06792507  0.59270324     0.43600
H1516       H  0.80778563  0.13906817  0.91963029     0.43500
C1517       C  0.83994995  0.24771362  0.65631332    -0.05500
C1518       C  0.84753690  0.22030582  0.66021485    -0.33000
C1519       C  0.84692987  0.20309585  0.62382221     0.36300
C1520       C  0.83953298  0.21366551  0.58239462    -0.05900
C1521       C  0.82974754  0.24079262  0.57993266    -0.32900
C1522       C  0.83004145  0.25776139  0.61658796     0.36200
H1523       H  0.85436594  0.21235757  0.69135579     0.16600
O1524       O  0.85428468  0.17608111  0.62866326    -0.60400
H1525       H  0.82252016  0.24962007  0.54993601     0.16600
O1526       O  0.82158251  0.28449173  0.61290731    -0.60500
H1527       H  0.83829470  0.29518897  0.60626858     0.43600
H1528       H  0.87410842  0.17627164  0.63495661     0.43500
C1529       C  0.84624092  0.23919265  0.84502285    -0.05500
C1530       C  0.82132602  0.23218595  0.86485073    -0.33000
C1531       C  0.82044290  0.21451412  0.90087554     0.36300
C1532       C  0.84462141  0.20317275  0.91767245    -0.05900
C1533       C  0.86924764  0.20836609  0.89614926    -0.32900
C1534       C  0.87029951  0.22635987  0.86041589     0.36200
H1535       H  0.80250934  0.24140787  0.85376826     0.16600
O1536       O  0.79601562  0.20988481  0.92133872    -0.60400
H1537       H  0.88806792  0.20014222  0.90913176     0.16600
O1538       O  0.89516475  0.23197973  0.84201402    -0.60500
H1539       H  0.90336933  0.24643334  0.86075260     0.43600
H1540       H  0.78917396  0.19236286  0.90891937     0.43500
C1541       C  0.86423055  0.51396644  0.90301033    -0.05500
C1542       C  0.84021496  0.52657031  0.88796759    -0.33000
C1543       C  0.84088460  0.54682114  0.85539216     0.36300
C1544       C  0.86593691  0.55498107  0.83665738    -0.05900
C1545       C  0.88987154  0.54199792  0.85115324    -0.32900
C1546       C  0.88919759  0.52173268  0.88361705     0.36200
H1547       H  0.82068002  0.52097185  0.90182681     0.16600
O1548       O  0.81680845  0.55834866  0.84216699    -0.60400
H1549       H  0.90943779  0.54763135  0.83744494     0.16600
O1550       O  0.91325893  0.50996581  0.89635228    -0.60500
H1551       H  0.91565908  0.49391905  0.87676266     0.43600
H1552       H  0.81345523  0.57361112  0.86293941     0.43500
C1553       C  0.86500504  0.56101226  0.65136659    -0.05500
C1554       C  0.88902753  0.55099217  0.63246433    -0.33000
C1555       C  0.88826023  0.53010047  0.60156938     0.36300
C1556       C  0.86300346  0.51892520  0.58839230    -0.05900
C1557       C  0.83888120  0.52922191  0.60673309    -0.32900
C1558       C  0.83970077  0.55010588  0.63796362     0.36200
H1559       H  0.90873439  0.55912640  0.64192364     0.16600
O1560       O  0.91242209  0.52108380  0.58424774    -0.60400
H1561       H  0.81925915  0.52087671  0.59730494     0.16600
O1562       O  0.81571633  0.55894057  0.65608402    -0.60500
H1563       H  0.80880151  0.57317667  0.63585609     0.43600
H1564       H  0.91948335  0.50751702  0.60550017     0.43500
C1565       C  0.84028217  0.78141388  0.50137944    -0.05500
C1566       C  0.84431019  0.80971031  0.49452625    -0.33000
C1567       C  0.82193032  0.82791374  0.49334523     0.36300
C1568       C  0.79516373  0.81787230  0.49904461    -0.05900
C1569       C  0.79143455  0.78951870  0.50522570    -0.32900
C1570       C  0.81351909  0.77149482  0.50629882     0.36200
H1571       H  0.86470661  0.81757963  0.48919149     0.13400
O1572       O  0.82649474  0.85538386  0.48718571    -0.60400
H1573       H  0.77111530  0.78118040  0.50942295     0.16600
O1574       O  0.80876548  0.74398836  0.01244851    -0.60500
H1575       H  0.80277565  0.73690608  0.98362286     0.43600
H1576       H  0.82485484  0.86374009  0.51660149     0.43500
C1577       C  0.88262918  0.70222951  0.92206280    -0.05500
C1578       C  0.90621880  0.69377268  0.89964458    -0.33000
C1579       C  0.90455066  0.67678368  0.86328324     0.36300
C1580       C  0.87896307  0.66741001  0.84876038    -0.05900
C1581       C  0.85558309  0.67402624  0.87287043    -0.32900
C1582       C  0.85735046  0.69062880  0.90982689     0.36200
H1583       H  0.92638774  0.69945446  0.91035648     0.16600
O1584       O  0.92815908  0.66985416  0.84199428    -0.60400
H1585       H  0.83581993  0.66597826  0.86354021     0.16600
O1586       O  0.83414649  0.69553114  0.93351741    -0.60500
H1587       H  0.83353618  0.68081763  0.95580788     0.43600
H1588       H  0.93560519  0.65402377  0.85839434     0.43500
C1589       C  0.87896522  0.67682205  0.65720813    -0.05500
C1590       C  0.90310535  0.67799359  0.63249259    -0.33000
C1591       C  0.90528127  0.69512232  0.59596354     0.36300
C1592       C  0.88343347  0.71213883  0.58382576    -0.05900
C1593       C  0.85994733  0.71247577  0.60989521    -0.32900
C1594       C  0.85760517  0.69506664  0.64638776     0.36200
H1595       H  0.91996353  0.66449522  0.63998248     0.16600
O1596       O  0.92852140  0.69430226  0.57108885    -0.60400
H1597       H  0.84279032  0.72511488  0.60053555     0.16600
O1598       O  0.83392710  0.69534374  0.67010037    -0.60500
H1599       H  0.83676069  0.70960996  0.69279826     0.43600
H1600       H  0.92647428  0.67789147  0.55213720     0.43500
loop_ 
_geom_bond_atom_site_label_1 
_geom_bond_atom_site_label_2 
_geom_bond_distance 
_geom_bond_site_symmetry_2 
_ccdc_geom_bond_type 
C1            C2   1.531       .  S
C1            C7   1.526       .  S
C1            C5   1.531       .  S
C1          C777   1.517       .  S
C2            H9   1.086       .  S
C2          C803   1.362       .  D
C3            C4   1.557   1_556  S
C3          C802   1.362       .  D
C3          C765   1.490   1_556  S
C4            C8   1.552       .  S
C4            C6   1.553   1_554  S
C4           H10   1.110       .  S
C5           H11   1.083       .  S
C5          C806   1.357       .  D
C6          C805   1.357       .  D
C6          C303   1.472   1_556  S
C7          H812   1.087       .  S
C7          C808   1.362       .  D
C8          C807   1.362       .  D
C8          C792   1.486       .  S
H12         C807   1.087       .  S
O13         Ni21   1.922       .  S
O13          C23   1.283       .  A
O14         Ni21   1.923       .  S
O14          C24   1.283       .  A
O15         Ni21   1.896       .  S
O15          C25   1.277       .  A
O16         Ni21   1.896       .  S
O16          C26   1.279       .  A
O17         Ni22   1.906       .  S
O17          C26   1.279       .  A
O18         Ni22   1.902       .  S
O18          C25   1.279       .  A
O19         Ni22   1.934       .  S
O19          C24   1.285       .  A
O20         Ni22   1.931       .  S
O20          C23   1.284       .  A
Ni21        Ni22   2.384       .  S
C23         C744   1.498       .  S
C24         C789   1.497       .  S
C25         C780   1.468       .  S
C26         C753   1.471       .  S
C27          C28   1.528       .  S
C27          C33   1.537   1_554  S
C27          C31   1.531       .  S
C27         C720   1.520       .  S
C28          H35   1.086       .  S
C28          C29   1.369       .  D
C29         C830   1.562   1_554  S
C29         C708   1.507       .  S
C30          C34   1.549       .  S
C30         C829   1.562       .  S
C30         C832   1.547       .  S
C30          H36   1.109       .  S
C31          H37   1.087       .  S
C31          C32   1.355       .  D
C32         C830   1.547   1_554  S
C32         C289   1.473       .  S
C33          H38   1.081       .  S
C33         C834   1.363       .  D
C34         C833   1.363       .  D
C34         C732   1.484       .  S
O39         Ni47   1.916       .  S
O39          C49   1.280       .  A
O40         Ni47   1.919       .  S
O40          C50   1.281       .  A
O41         Ni47   1.913       .  S
O41          C51   1.281       .  A
O42         Ni47   1.910       .  S
O42          C52   1.280       .  A
O43         Ni48   1.894       .  S
O43          C52   1.274       .  A
O44         Ni48   1.893       .  S
O44          C51   1.276       .  A
O45         Ni48   1.934       .  S
O45          C50   1.286       .  A
O46         Ni48   1.934       .  S
O46          C49   1.286       .  A
Ni47        Ni48   2.387       .  S
C49         C729   1.496       .  S
C50         C684   1.497       .  S
C51         C693   1.466       .  S
C52         C717   1.450       .  S
O53        Ni861   1.924       .  S
O53          C63   1.283       .  A
O54         Ni61   1.922   1_554  S
O54          C64   1.282       .  A
O55         Ni61   1.911   1_554  S
O55          C65   1.281       .  A
O56        Ni861   1.909       .  S
O56          C66   1.281       .  A
O57        Ni862   1.895       .  S
O57          C66   1.276       .  A
O58         Ni62   1.893       .  S
O58          C65   1.277       .  A
O59         Ni62   1.930       .  S
O59          C64   1.285       .  A
O60        Ni862   1.928       .  S
O60          C63   1.284       .  A
Ni61        O853   1.924       .  S
Ni61        O856   1.909       .  S
Ni61        Ni62   2.384   1_556  S
Ni62        O857   1.895   1_554  S
Ni62        O860   1.928   1_554  S
C63         C741   1.497       .  S
C64         C681   1.498       .  S
C65         C756   1.472       .  S
C66         C696   1.465       .  S
C67          C68   1.526       .  S
C67          C73   1.537   1_554  S
C67          C71   1.529       .  S
C67         C657   1.525       .  S
C68          H75   1.087       .  S
C68          C69   1.366       .  D
C69         C870   1.559   1_554  S
C69         C768   1.498   1_554  S
C70          C74   1.552       .  S
C70         C869   1.559       .  S
C70         C872   1.554       .  S
C70          H76   1.110       .  S
C71          H77   1.087       .  S
C71          C72   1.360       .  D
C72         C870   1.554   1_554  S
C72         C320   1.481       .  S
C73          H78   1.081       .  S
C73         C874   1.363       .  D
C74         C873   1.363       .  D
C74         C669   1.486       .  S
O79         Ni87   1.918       .  S
O79          C89   1.281       .  A
O80         Ni87   1.922       .  S
O80          C90   1.283       .  A
O81         Ni87   1.913       .  S
O81          C91   1.281       .  A
O82         Ni87   1.908       .  S
O82          C92   1.279       .  A
O83         Ni88   1.905       .  S
O83          C92   1.277       .  A
O84         Ni88   1.908       .  S
O84          C91   1.279       .  A
O85         Ni88   1.935       .  S
O85          C90   1.285       .  A
O86         Ni88   1.935       .  S
O86          C89   1.286       .  A
Ni87        Ni88   2.385       .  S
C89         C672   1.498       .  S
C90         C633   1.500       .  S
C91         C645   1.481       .  S
C92         C660   1.454       .  S
C93          C94   1.531       .  S
C93          C99   1.530       .  S
C93          C97   1.532       .  S
C93         C609   1.527       .  S
C94         H101   1.085       .  S
C94         C895   1.368       .  D
C95          C96   1.566   1_556  S
C95         C894   1.368       .  D
C95         C597   1.513       .  S
C96         C100   1.551       .  S
C96          C98   1.557   1_554  S
C96         H102   1.109       .  S
C97         H103   1.081       .  S
C97         C898   1.359       .  D
C98         C897   1.359       .  D
C98         C275   1.481   1_556  S
C99         H904   1.087       .  S
C99         C900   1.362       .  D
C100        C899   1.362   1_554  D
C100        C624   1.487       .  S
H104        C899   1.087   1_554  S
O105       Ni113   1.933       .  S
O105        C115   1.285       .  A
O106       Ni113   1.932       .  S
O106        C116   1.285       .  A
O107       Ni113   1.899       .  S
O107        C117   1.278       .  A
O108       Ni113   1.901       .  S
O108        C118   1.278       .  A
O109       Ni114   1.914       .  S
O109        C118   1.282       .  A
O110       Ni114   1.913       .  S
O110        C117   1.281       .  A
O111       Ni114   1.930       .  S
O111        C116   1.284       .  A
O112       Ni114   1.929       .  S
O112        C115   1.284       .  A
Ni113      Ni114   2.382       .  S
C115        C573   1.503       .  S
C116        C621   1.503       .  S
C117        C612   1.475       .  S
C118        C585   1.478       .  S
O119       Ni127   1.932   1_554  S
O119        C129   1.284       .  A
O120       Ni927   1.933       .  S
O120        C130   1.285       .  A
O121       Ni927   1.909       .  S
O121        C131   1.281       .  A
O122       Ni127   1.908   1_554  S
O122        C132   1.279       .  A
O123       Ni128   1.908   1_554  S
O123        C132   1.281       .  A
O124       Ni928   1.912       .  S
O124        C131   1.280       .  A
O125       Ni928   1.929       .  S
O125        C130   1.283       .  A
O126       Ni128   1.926   1_554  S
O126        C129   1.283       .  A
Ni127       O920   1.933       .  S
Ni127       O921   1.909       .  S
Ni127      Ni128   2.382       .  S
Ni128       O924   1.912       .  S
Ni128       O925   1.929       .  S
C129        C636   1.501       .  S
C130        C576   1.503       .  S
C131        C648   1.481       .  S
C132        C588   1.478       .  S
C133        C134   1.528       .  S
C133        C139   1.534       .  S
C133        C137   1.532       .  S
C133        C549   1.518       .  S
C134        H141   1.086       .  S
C134        C935   1.368       .  D
C135        C136   1.560   1_556  S
C135        C934   1.368       .  D
C135        C705   1.508   1_556  S
C136        C140   1.547       .  S
C136        C138   1.548       .  S
C136        H142   1.108       .  S
C137        H143   1.086   1_545  S
C137        C938   1.357       .  D
C138        C937   1.357   1_554  D
C138        C317   1.470   1_545  S
C139        H944   1.084       .  S
C139        C940   1.361       .  D
C140        C939   1.361       .  D
C140        C561   1.481       .  S
H144        C939   1.084       .  S
O145       Ni153   1.925       .  S
O145        C155   1.284       .  A
O146       Ni153   1.921       .  S
O146        C156   1.282       .  A
O147       Ni153   1.899       .  S
O147        C157   1.277       .  A
O148       Ni153   1.903       .  S
O148        C158   1.279       .  A
O149       Ni154   1.904       .  S
O149        C158   1.279       .  A
O150       Ni154   1.902       .  S
O150        C157   1.277       .  A
O151       Ni154   1.926       .  S
O151        C156   1.284       .  A
O152       Ni154   1.923       .  S
O152        C155   1.283       .  A
Ni153      Ni154   2.387       .  S
C155        C525   1.495       .  S
C156        C564   1.493       .  S
C157        C552   1.450       .  S
C158        C537   1.472       .  S
C159        C160   1.538       .  S
C159        C165   1.530       .  S
C159        C163   1.526       .  S
C159        C501   1.525       .  S
C160        H167   1.080       .  S
C160        C161   1.369       .  D
C161        C962   1.561   1_554  S
C161        C489   1.504       .  S
C162        C166   1.552       .  S
C162        C961   1.561       .  S
C162        C964   1.550       .  S
C162        H168   1.110       .  S
C163        H169   1.087       .  S
C163        C164   1.357       .  D
C164        C962   1.550   1_554  S
C164        C278   1.476       .  S
C165        H170   1.087   1_554  S
C165        C966   1.363   1_554  D
C166        C965   1.363       .  D
C166        C513   1.487       .  S
O171       Ni179   1.924       .  S
O171        C181   1.283       .  A
O172       Ni179   1.929       .  S
O172        C182   1.283       .  A
O173       Ni179   1.911       .  S
O173        C183   1.281       .  A
O174       Ni179   1.912       .  S
O174        C184   1.280       .  A
O175       Ni180   1.901       .  S
O175        C184   1.279       .  A
O176       Ni180   1.903       .  S
O176        C183   1.278       .  A
O177       Ni180   1.930       .  S
O177        C182   1.285       .  A
O178       Ni180   1.930       .  S
O178        C181   1.284       .  A
Ni179      Ni180   2.385       .  S
C181        C465   1.498       .  S
C182        C516   1.502       .  S
C183        C504   1.467       .  S
C184        C477   1.473       .  S
O185       Ni993   1.925       .  S
O185        C195   1.283       .  A
O186       Ni193   1.927       .  S
O186        C196   1.284       .  A
O187       Ni193   1.904       .  S
O187        C197   1.280       .  A
O188       Ni993   1.906       .  S
O188        C198   1.280       .  A
O189       Ni994   1.904       .  S
O189        C198   1.279       .  A
O190       Ni194   1.903       .  S
O190        C197   1.278       .  A
O191       Ni194   1.925       .  S
O191        C196   1.283       .  A
O192       Ni994   1.924       .  S
O192        C195   1.283       .  A
Ni193       O985   1.925   1_554  S
Ni193       O988   1.906   1_554  S
Ni193      Ni194   2.384       .  S
Ni194       O989   1.904   1_554  S
Ni194       O992   1.924   1_554  S
C195        C528   1.496       .  S
C196        C468   1.497       .  S
C197        C540   1.472       .  S
C198        C480   1.472       .  S
C199        C200   1.530       .  S
C199        C205   1.537       .  S
C199        C203   1.533       .  S
C199        C441   1.522       .  S
C200        H207   1.087       .  S
C200        C201   1.363       .  D
C201       C1002   1.558   1_554  S
C201        C600   1.493       .  S
C202        C206   1.554       .  S
C202       C1001   1.558       .  S
C202       C1004   1.552       .  S
C202        H208   1.110       .  S
C203        H209   1.085       .  S
C203        C204   1.355       .  D
C204       C1002   1.552   1_554  S
C204        C306   1.475       .  S
C205        H210   1.085       .  S
C205       C1006   1.365   1_554  D
C206       C1005   1.365       .  D
C206        C453   1.490       .  S
O211       Ni219   1.924       .  S
O211        C221   1.283       .  A
O212       Ni219   1.924       .  S
O212        C222   1.283       .  A
O213       Ni219   1.912       .  S
O213        C223   1.281       .  A
O214       Ni219   1.907       .  S
O214        C224   1.280       .  A
O215       Ni220   1.900       .  S
O215        C224   1.276       .  A
O216       Ni220   1.900       .  S
O216        C223   1.277       .  A
O217       Ni220   1.934       .  S
O217        C222   1.285       .  A
O218       Ni220   1.937       .  S
O218        C221   1.286       .  A
Ni219      Ni220   2.385       .  S
C221        C456   1.502       .  S
C222        C417   1.500       .  S
C223        C429   1.473       .  S
C224        C444   1.459       .  S
C225        C226   1.532       .  S
C225        C231   1.530       .  S
C225        C229   1.533       .  S
C225        C393   1.524       .  S
C226        H233   1.086       .  S
C226       C1027   1.362       .  D
C227        C228   1.557   1_556  S
C227       C1026   1.362       .  D
C227        C492   1.490   1_556  S
C228        C232   1.550       .  S
C228        C230   1.557       .  S
C228        H234   1.110       .  S
C229        H235   1.079   1_455  S
C229       C1030   1.359       .  D
C230       C1029   1.359   1_554  D
C230        C292   1.483   1_455  S
C231       H1036   1.087       .  S
C231       C1032   1.364       .  D
C232       C1031   1.364       .  D
C232        C405   1.485       .  S
H236       C1031   1.087       .  S
O237       Ni245   1.921       .  S
O237        C247   1.282       .  A
O238       Ni245   1.922       .  S
O238        C248   1.282       .  A
O239       Ni245   1.893       .  S
O239        C249   1.277       .  A
O240       Ni245   1.897       .  S
O240        C250   1.279       .  A
O241       Ni246   1.913       .  S
O241        C250   1.280       .  A
O242       Ni246   1.912       .  S
O242        C249   1.281       .  A
O243       Ni246   1.928       .  S
O243        C248   1.284       .  A
O244       Ni246   1.926       .  S
O244        C247   1.284       .  A
Ni245      Ni246   2.385       .  S
C247        C369   1.493       .  S
C248        C408   1.490       .  S
C249        C396   1.469       .  S
C250        C381   1.476       .  S
O251       Ni259   1.929       .  S
O251        C261   1.283       .  A
O252      Ni1059   1.926       .  S
O252        C262   1.283       .  A
O253      Ni1059   1.914       .  S
O253        C263   1.282       .  A
O254       Ni259   1.915       .  S
O254        C264   1.281       .  A
O255       Ni260   1.896       .  S
O255        C264   1.277       .  A
O256      Ni1060   1.895       .  S
O256        C263   1.276       .  A
O257      Ni1060   1.923       .  S
O257        C262   1.283       .  A
O258       Ni260   1.926       .  S
O258        C261   1.284       .  A
Ni259      O1052   1.926   1_554  S
Ni259      O1053   1.914   1_554  S
Ni259      Ni260   2.384       .  S
Ni260      O1056   1.895   1_554  S
Ni260      O1057   1.923   1_554  S
C261        C420   1.499       .  S
C262        C372   1.492       .  S
C263        C432   1.471       .  S
C264        C384   1.477       .  S
O265       Ni273   1.929       .  S
O265        C275   1.280       .  A
O266       Ni273   1.917   1_545  S
O266        C276   1.282       .  A
O267       Ni273   1.890       .  S
O267        C277   1.277       .  A
O268       Ni273   1.907   1_545  S
O268        C278   1.282       .  A
O269       Ni274   1.925   1_545  S
O269       C1078   1.279       .  A
O270       Ni274   1.910       .  S
O270       C1077   1.281       .  A
O271       Ni274   1.895   1_545  S
O271       C1076   1.278       .  A
O272       Ni274   1.906       .  S
O272       C1075   1.283       .  A
Ni273     Ni1074   2.388   1_554  S
Ni274     Ni1073   2.388       .  S
C275       O1072   1.283   1_554  A
C276       O1071   1.278   1_554  A
C276        C345   1.473       .  S
C277       O1070   1.281   1_554  A
C277        C360   1.463       .  S
C278       O1069   1.279   1_554  A
O279       Ni287   1.914       .  S
O279       C1089   1.277       .  A
O280       Ni287   1.906       .  S
O280       C1090   1.280       .  A
O281       Ni287   1.898       .  S
O281       C1091   1.278       .  A
O282       Ni287   1.910       .  S
O282       C1092   1.284       .  A
O283       Ni288   1.931       .  S
O283        C292   1.280       .  A
O284       Ni288   1.919       .  S
O284        C291   1.283       .  A
O285       Ni288   1.902       .  S
O285        C290   1.279       .  A
O286       Ni288   1.916       .  S
O286        C289   1.284       .  A
Ni287     Ni1088   2.388       .  S
Ni288     Ni1087   2.388   1_554  S
C289       O1079   1.277   1_554  A
C290       O1080   1.280   1_554  A
C290        C348   1.471   1_655  S
C291       O1081   1.278   1_554  A
C291        C336   1.474       .  S
C292       O1082   1.284   1_554  A
O293       Ni301   1.919       .  S
O293        C303   1.278       .  A
O294       Ni301   1.907       .  S
O294        C304   1.280   1_655  A
O295       Ni301   1.899       .  S
O295        C305   1.279       .  A
O296       Ni301   1.911       .  S
O296        C306   1.284   1_655  A
O297       Ni302   1.918   1_455  S
O297       C1106   1.277       .  A
O298       Ni302   1.908       .  S
O298       C1105   1.280       .  A
O299       Ni302   1.893       .  S
O299       C1104   1.278   1_655  A
O300       Ni302   1.907       .  S
O300       C1103   1.283       .  A
Ni301     Ni1102   2.389   1_554  S
Ni302     Ni1101   2.389       .  S
C303       O1100   1.283   1_554  A
C304       O1099   1.278   1_454  A
C304        C357   1.463       .  S
C305       O1098   1.280   1_554  A
C305        C324   1.474       .  S
C306       O1097   1.277   1_554  A
O307       Ni315   1.915       .  S
O307        C317   1.278       .  A
O308       Ni315   1.908       .  S
O308        C318   1.280       .  A
O309       Ni315   1.903       .  S
O309        C319   1.278       .  A
O310       Ni315   1.917       .  S
O310        C320   1.284       .  A
O311       Ni316   1.927       .  S
O311       C1120   1.280       .  A
O312       Ni316   1.917       .  S
O312       C1119   1.283       .  A
O313       Ni316   1.901       .  S
O313       C1118   1.279       .  A
O314       Ni316   1.911       .  S
O314       C1117   1.282       .  A
Ni315     Ni1116   2.387   1_554  S
Ni316     Ni1115   2.387       .  S
C317       O1114   1.282   1_554  A
C318       O1113   1.279   1_554  A
C318        C321   1.474       .  S
C319       O1112   1.283   1_554  A
C319        C333   1.476   1_565  S
C320       O1111   1.280   1_554  A
C321        C326   1.410       .  A
C321       C1122   1.404   1_554  A
C322        C323   1.393       .  A
C322       C1121   1.404       .  A
C322        H327   1.083       .  S
C323       C1124   1.410       .  A
C323        O328   1.372       .  S
C324        C325   1.404       .  A
C324       C1123   1.410   1_554  A
C325        C326   1.393       .  A
C325        H329   1.083       .  S
C326        O330   1.372       .  S
O328        H332   0.992       .  S
O330        H331   0.992       .  S
C333        C338   1.412       .  A
C333       C1134   1.403   1_554  A
C334        C335   1.396       .  A
C334       C1133   1.403       .  A
C334        H339   1.084       .  S
C335       C1136   1.411       .  A
C335        O340   1.372       .  S
C336        C337   1.401       .  A
C336       C1135   1.411   1_554  A
C337        C338   1.396       .  A
C337        H341   1.084       .  S
C338        O342   1.371       .  S
O340        H344   0.992       .  S
O342        H343   0.992       .  S
C345        C346   1.405   1_554  A
C345       C1150   1.408       .  A
C346        C347   1.392       .  A
C346        H351   1.083       .  S
C347        C348   1.408   1_556  A
C347        O352   1.372   1_455  S
C348       C1149   1.405       .  A
C349        C350   1.395       .  A
C349       C1148   1.405       .  A
C349        H353   1.083       .  S
C350       C1145   1.408       .  A
C350        O354   1.371       .  S
O352        H356   0.992       .  S
O354        H355   0.992       .  S
C357        C362   1.406       .  A
C357       C1158   1.403   1_554  A
C358        C359   1.391       .  A
C358       C1157   1.403       .  A
C358        H363   1.084       .  S
C359       C1160   1.407       .  A
C359        O364   1.372       .  S
C360        C361   1.403       .  A
C360       C1159   1.407   1_554  A
C361        C362   1.391       .  A
C361        H365   1.084       .  S
C362        O366   1.372       .  S
O364        H368   0.992       .  S
O366        H367   0.992       .  S
C369        C370   1.407       .  A
C369        C374   1.413       .  A
C370        C371   1.404       .  A
C370        H375   1.083       .  S
C371        C372   1.413       .  A
C371        O376   1.371       .  S
C372        C373   1.406       .  A
C373        C374   1.402       .  A
C373        H377   1.083       .  S
C374        O378   1.371       .  S
O376        H380   0.992       .  S
O378        H379   0.992       .  S
C381        C382   1.403       .  A
C381        C386   1.411       .  A
C382        C383   1.389       .  A
C382        H387   1.083       .  S
C383        C384   1.412       .  A
C383        O388   1.372       .  S
C384        C385   1.406       .  A
C385        C386   1.399       .  A
C385        H389   1.083       .  S
C386        O390   1.372       .  S
O388        H392   0.992       .  S
O390        H391   0.992       .  S
C393        C394   1.409       .  A
C393        C398   1.416       .  A
C394        C395   1.389       .  A
C394        H399   1.074       .  S
C395        C396   1.406       .  A
C395        O400   1.373       .  S
C396        C397   1.401       .  A
C397        C398   1.398       .  A
C397        H401   1.084       .  S
C398        O402   1.373       .  S
O400        H404   0.992   1_455  S
O402        H403   0.992       .  S
C405        C406   1.402       .  A
C405        C410   1.409       .  A
C406        C407   1.407       .  A
C406        H411   1.084       .  S
C407        C408   1.415       .  A
C407        O412   1.371       .  S
C408        C409   1.404       .  A
C409        C410   1.401       .  A
C409        H413   1.083       .  S
C410        O414   1.372       .  S
O412        H416   0.992       .  S
O414        H415   0.992       .  S
C417        C418   1.408       .  A
C417        C422   1.415       .  A
C418        C419   1.407       .  A
C418        H423   1.083       .  S
C419        C420   1.415       .  A
C419        O424   1.371       .  S
C420        C421   1.407       .  A
C421        C422   1.404       .  A
C421        H425   1.083       .  S
C422        O426   1.372       .  S
O424        H428   0.992       .  S
O426        H427   0.992       .  S
C429        C430   1.403       .  A
C429        C434   1.412       .  A
C430        C431   1.394       .  A
C430        H435   1.084       .  S
C431        C432   1.412       .  A
C431        O436   1.372       .  S
C432        C433   1.401       .  A
C433        C434   1.394       .  A
C433        H437   1.084       .  S
C434        O438   1.372       .  S
O436        H440   0.992       .  S
O438        H439   0.992       .  S
C441        C442   1.412       .  A
C441        C446   1.415       .  A
C442        C443   1.390       .  A
C442        H447   1.081       .  S
C443        C444   1.400       .  A
C443        O448   1.372       .  S
C444        C445   1.401       .  A
C445        C446   1.397       .  A
C445        H449   1.084       .  S
C446        O450   1.371       .  S
O448        H452   0.992       .  S
O450        H451   0.992       .  S
C453        C454   1.404       .  A
C453        C458   1.406       .  A
C454        C455   1.406       .  A
C454        H459   1.084       .  S
C455        C456   1.415       .  A
C455        O460   1.371       .  S
C456        C457   1.412       .  A
C457        C458   1.407       .  A
C457        H461   1.083       .  S
C458        O462   1.371       .  S
O460        H464   0.992       .  S
O462        H463   0.991       .  S
C465        C466   1.408       .  A
C465        C470   1.414       .  A
C466        C467   1.404       .  A
C466        H471   1.083       .  S
C467        C468   1.414       .  A
C467        O472   1.371       .  S
C468        C469   1.408       .  A
C469        C470   1.405       .  A
C469        H473   1.083       .  S
C470        O474   1.371       .  S
O472        H476   0.992       .  S
O474        H475   0.992       .  S
C477        C478   1.404       .  A
C477        C482   1.409       .  A
C478        C479   1.393       .  A
C478        H483   1.084       .  S
C479        C480   1.409       .  A
C479        O484   1.372       .  S
C480        C481   1.405       .  A
C481        C482   1.396       .  A
C481        H485   1.084       .  S
C482        O486   1.372       .  S
O484        H488   0.992       .  S
O486        H487   0.992       .  S
C489        C494   1.416       .  A
C489       C1290   1.409   1_554  A
C490        C491   1.413       .  A
C490       C1289   1.409       .  A
C490        H495   1.083       .  S
C491       C1292   1.411       .  A
C491        O496   1.371       .  S
C492        C493   1.400       .  A
C492       C1291   1.411   1_554  A
C493        C494   1.400       .  A
C493        H497   1.084       .  S
C494        O498   1.372       .  S
O496        H500   0.992       .  S
O498        H499   0.992   1_554  S
C501        C502   1.410       .  A
C501        C506   1.417       .  A
C502        C503   1.397       .  A
C502        H507   1.077       .  S
C503        C504   1.405       .  A
C503        O508   1.372       .  S
C504        C505   1.397       .  A
C505        C506   1.395       .  A
C505        H509   1.084       .  S
C506        O510   1.374       .  S
O508        H512   0.992       .  S
O510        H511   0.992       .  S
C513        C514   1.402       .  A
C513        C518   1.407       .  A
C514        C515   1.408       .  A
C514        H519   1.084       .  S
C515        C516   1.418       .  A
C515        O520   1.371       .  S
C516        C517   1.410       .  A
C517        C518   1.405       .  A
C517        H521   1.083       .  S
C518        O522   1.371       .  S
O520        H524   0.992       .  S
O522        H523   0.992       .  S
C525        C526   1.407       .  A
C525        C530   1.414       .  A
C526        C527   1.403       .  A
C526        H531   1.083       .  S
C527        C528   1.414       .  A
C527        O532   1.371       .  S
C528        C529   1.408       .  A
C529        C530   1.404       .  A
C529        H533   1.083       .  S
C530        O534   1.371       .  S
O532        H536   0.992       .  S
O534        H535   0.992       .  S
C537        C538   1.404       .  A
C537        C542   1.410       .  A
C538        C539   1.393       .  A
C538        H543   1.084       .  S
C539        C540   1.410       .  A
C539        O544   1.372       .  S
C540        C541   1.404       .  A
C541        C542   1.394       .  A
C541        H545   1.084       .  S
C542        O546   1.372       .  S
O544        H548   0.992       .  S
O546        H547   0.992       .  S
C549        C550   1.410       .  A
C549        C554   1.418       .  A
C550        C551   1.393       .  A
C550        H555   1.079       .  S
C551        C552   1.400       .  A
C551        O556   1.372       .  S
C552        C553   1.394       .  A
C553        C554   1.391       .  A
C553        H557   1.084       .  S
C554        O558   1.372       .  S
O556        H560   0.992       .  S
O558        H559   0.992       .  S
C561        C562   1.401       .  A
C561        C566   1.407       .  A
C562        C563   1.405       .  A
C562        H567   1.084       .  S
C563        C564   1.416       .  A
C563        O568   1.371       .  S
C564        C565   1.407       .  A
C565        C566   1.401       .  A
C565        H569   1.083       .  S
C566        O570   1.372       .  S
O568        H572   0.992       .  S
O570        H571   0.992       .  S
C573        C574   1.408       .  A
C573        C578   1.415       .  A
C574        C575   1.407       .  A
C574        H579   1.083       .  S
C575        C576   1.416       .  A
C575        O580   1.371       .  S
C576        C577   1.408       .  A
C577        C578   1.407       .  A
C577        H581   1.083       .  S
C578        O582   1.371       .  S
O580        H584   0.992       .  S
O582        H583   0.992       .  S
C585        C586   1.404       .  A
C585        C590   1.412       .  A
C586        C587   1.397       .  A
C586        H591   1.083       .  S
C587        C588   1.412       .  A
C587        O592   1.372       .  S
C588        C589   1.403       .  A
C589        C590   1.393       .  A
C589        H593   1.083       .  S
C590        O594   1.372       .  S
O592        H596   0.992       .  S
O594        H595   0.992       .  S
C597        C602   1.413   1_556  A
C597       C1398   1.413       .  A
C598        C599   1.400       .  A
C598       C1397   1.413       .  A
C598        H603   1.083       .  S
C599       C1400   1.403       .  A
C599        O604   1.372       .  S
C600        C601   1.409       .  A
C600       C1399   1.403   1_554  A
C601        C602   1.417       .  A
C601        H605   1.083       .  S
C602        O606   1.370       .  S
O604        H608   0.992       .  S
O606        H607   0.992       .  S
C609        C610   1.410       .  A
C609        C614   1.415       .  A
C610        C611   1.392       .  A
C610        H615   1.076       .  S
C611        C612   1.408       .  A
C611        O616   1.372       .  S
C612        C613   1.402       .  A
C613        C614   1.399       .  A
C613        H617   1.083       .  S
C614        O618   1.373       .  S
O616        H620   0.992       .  S
O618        H619   0.992       .  S
C621        C622   1.410       .  A
C621        C626   1.418       .  A
C622        C623   1.405       .  A
C622        H627   1.083       .  S
C623        C624   1.407       .  A
C623        O628   1.372       .  S
C624        C625   1.401       .  A
C625        C626   1.408       .  A
C625        H629   1.084       .  S
C626        O630   1.371       .  S
O628        H632   0.992       .  S
O630        H631   0.992       .  S
C633        C634   1.408       .  A
C633        C638   1.414       .  A
C634        C635   1.403       .  A
C634        H639   1.083       .  S
C635        C636   1.414       .  A
C635        O640   1.371       .  S
C636        C637   1.409       .  A
C637        C638   1.408       .  A
C637        H641   1.083       .  S
C638        O642   1.371       .  S
O640        H644   0.992       .  S
O642        H643   0.992       .  S
C645        C646   1.405       .  A
C645        C650   1.412       .  A
C646        C647   1.398       .  A
C646        H651   1.083       .  S
C647        C648   1.412       .  A
C647        O652   1.372       .  S
C648        C649   1.405       .  A
C649        C650   1.395       .  A
C649        H653   1.083       .  S
C650        O654   1.372       .  S
O652        H656   0.992       .  S
O654        H655   0.992       .  S
C657        C658   1.411       .  A
C657        C662   1.418       .  A
C658        C659   1.394       .  A
C658        H663   1.076       .  S
C659        C660   1.400       .  A
C659        O664   1.372       .  S
C660        C661   1.394       .  A
C661        C662   1.395       .  A
C661        H665   1.084       .  S
C662        O666   1.373       .  S
O664        H668   0.992       .  S
O666        H667   0.992       .  S
C669        C670   1.405       .  A
C669        C674   1.405       .  A
C670        C671   1.404       .  A
C670        H675   1.084       .  S
C671        C672   1.413       .  A
C671        O676   1.372       .  S
C672        C673   1.412       .  A
C673        C674   1.405       .  A
C673        H677   1.083       .  S
C674        O678   1.371       .  S
O676        H680   0.992       .  S
O678        H679   0.992       .  S
C681        C682   1.406       .  A
C681        C686   1.416       .  A
C682        C683   1.404       .  A
C682        H687   1.083       .  S
C683        C684   1.415       .  A
C683        O688   1.372       .  S
C684        C685   1.406       .  A
C685        C686   1.405       .  A
C685        H689   1.083       .  S
C686        O690   1.371       .  S
O688        H692   0.992       .  S
O690        H691   0.992       .  S
C693        C694   1.401       .  A
C693        C698   1.410       .  A
C694        C695   1.395       .  A
C694        H699   1.084       .  S
C695        C696   1.410       .  A
C695        O700   1.372       .  S
C696        C697   1.400       .  A
C697        C698   1.392       .  A
C697        H701   1.084       .  S
C698        O702   1.372       .  S
O700        H704   0.992       .  S
O702        H703   0.992       .  S
C705        C710   1.409       .  A
C705       C1506   1.415   1_554  A
C706        C707   1.406       .  A
C706       C1505   1.415       .  A
C706        H711   1.082       .  S
C707       C1508   1.408       .  A
C707        O712   1.371       .  S
C708        C709   1.413       .  A
C708       C1507   1.408   1_554  A
C709        C710   1.405       .  A
C709        H713   1.083       .  S
C710        O714   1.370       .  S
O712        H716   0.992       .  S
O714        H715   0.992       .  S
C717        C718   1.393       .  A
C717        C722   1.401       .  A
C718        C719   1.394       .  A
C718        H723   1.084       .  S
C719        C720   1.419       .  A
C719        O724   1.374       .  S
C720        C721   1.410       .  A
C721        C722   1.393       .  A
C721        H725   1.076       .  S
C722        O726   1.373       .  S
O724        H728   0.992       .  S
O726        H727   0.992       .  S
C729        C730   1.407       .  A
C729        C734   1.419       .  A
C730        C731   1.402       .  A
C730        H735   1.083       .  S
C731        C732   1.408       .  A
C731        O736   1.371       .  S
C732        C733   1.400       .  A
C733        C734   1.405       .  A
C733        H737   1.084       .  S
C734        O738   1.372       .  S
O736        H740   0.992       .  S
O738        H739   0.992       .  S
C741        C742   1.409       .  A
C741        C746   1.413       .  A
C742        C743   1.405       .  A
C742        H747   1.083       .  S
C743        C744   1.414       .  A
C743        O748   1.371       .  S
C744        C745   1.408       .  A
C745        C746   1.403       .  A
C745        H749   1.083       .  S
C746        O750   1.371       .  S
O748        H752   0.992       .  S
O750        H751   0.992       .  S
C753        C754   1.402       .  A
C753        C758   1.410       .  A
C754        C755   1.389       .  A
C754        H759   1.084       .  S
C755        C756   1.411       .  A
C755        O760   1.372       .  S
C756        C757   1.404       .  A
C757        C758   1.396       .  A
C757        H761   1.083       .  S
C758        O762   1.372       .  S
O760        H764   0.992       .  S
O762        H763   0.992       .  S
C765        C766   1.408   1_554  A
C765        C770   1.407       .  A
C766        C767   1.414       .  A
C766        H771   1.084       .  S
C767        C768   1.412       .  A
C767        O772   1.370       .  S
C768        C769   1.406   1_556  A
C769        C770   1.397       .  A
C769        H773   1.084       .  S
C770       O1574   1.373       .  S
O772        H776   0.992   1_556  S
O774       C1570   1.373       .  S
O774        H775   0.992       .  S
C777        C778   1.408       .  A
C777        C782   1.412       .  A
C778        C779   1.389       .  A
C778        H783   1.078       .  S
C779        C780   1.407       .  A
C779        O784   1.372       .  S
C780        C781   1.403       .  A
C781        C782   1.393       .  A
C781        H785   1.083       .  S
C782        O786   1.372       .  S
O784        H788   0.992       .  S
O786        H787   0.992       .  S
C789        C790   1.407       .  A
C789        C794   1.416       .  A
C790        C791   1.402       .  A
C790        H795   1.083       .  S
C791        C792   1.408       .  A
C791        O796   1.373       .  S
C792        C793   1.403       .  A
C793        C794   1.410       .  A
C793        H797   1.084       .  S
C794        O798   1.371       .  S
O796        H800   0.992       .  S
O798        H799   0.992       .  S
C801        C802   1.531       .  S
C801        C807   1.526   1_556  S
C801        C805   1.531       .  S
C801       C1577   1.517       .  S
C802        H809   1.086       .  S
C803        C804   1.557       .  S
C803       C1565   1.490       .  S
C804        C808   1.552       .  S
C804        C806   1.553       .  S
C804        H810   1.110       .  S
C805        H811   1.083       .  S
C806       C1103   1.472       .  S
C808       C1592   1.486       .  S
O813       Ni821   1.922       .  S
O813        C823   1.283       .  A
O814       Ni821   1.923       .  S
O814        C824   1.283       .  A
O815       Ni821   1.896       .  S
O815        C825   1.277       .  A
O816       Ni821   1.896       .  S
O816        C826   1.279       .  A
O817       Ni822   1.906       .  S
O817        C826   1.279       .  A
O818       Ni822   1.902       .  S
O818        C825   1.279       .  A
O819       Ni822   1.934       .  S
O819        C824   1.285       .  A
O820       Ni822   1.931       .  S
O820        C823   1.284       .  A
Ni821      Ni822   2.384       .  S
C823       C1544   1.498       .  S
C824       C1589   1.497       .  S
C825       C1580   1.468       .  S
C826       C1553   1.471       .  S
C827        C828   1.528       .  S
C827        C833   1.537       .  S
C827        C831   1.531       .  S
C827       C1520   1.520       .  S
C828        H835   1.086       .  S
C828        C829   1.369       .  D
C829       C1508   1.507       .  S
C830        C834   1.549       .  S
C830        H836   1.109       .  S
C831        H837   1.087       .  S
C831        C832   1.355       .  D
C832       C1089   1.473       .  S
C833        H838   1.081       .  S
C834       C1532   1.484       .  S
O839       Ni847   1.916       .  S
O839        C849   1.280       .  A
O840       Ni847   1.919       .  S
O840        C850   1.281       .  A
O841       Ni847   1.913       .  S
O841        C851   1.281       .  A
O842       Ni847   1.910       .  S
O842        C852   1.280       .  A
O843       Ni848   1.894       .  S
O843        C852   1.274       .  A
O844       Ni848   1.893       .  S
O844        C851   1.276       .  A
O845       Ni848   1.934       .  S
O845        C850   1.286       .  A
O846       Ni848   1.934       .  S
O846        C849   1.286       .  A
Ni847      Ni848   2.387       .  S
C849       C1529   1.496       .  S
C850       C1484   1.497       .  S
C851       C1493   1.466       .  S
C852       C1517   1.450       .  S
O853        C863   1.283       .  A
O854       Ni861   1.922       .  S
O854        C864   1.282       .  A
O855       Ni861   1.911       .  S
O855        C865   1.281       .  A
O856        C866   1.281       .  A
O857        C866   1.276       .  A
O858       Ni862   1.893       .  S
O858        C865   1.277       .  A
O859       Ni862   1.930       .  S
O859        C864   1.285       .  A
O860        C863   1.284       .  A
Ni861      Ni862   2.384       .  S
C863       C1541   1.497       .  S
C864       C1481   1.498       .  S
C865       C1556   1.472       .  S
C866       C1496   1.465       .  S
C867        C868   1.526       .  S
C867        C873   1.537       .  S
C867        C871   1.529       .  S
C867       C1457   1.525       .  S
C868        H875   1.087       .  S
C868        C869   1.366       .  D
C869       C1568   1.498       .  S
C870        C874   1.552       .  S
C870        H876   1.110       .  S
C871        H877   1.087       .  S
C871        C872   1.360       .  D
C872       C1120   1.481       .  S
C873        H878   1.081       .  S
C874       C1469   1.486       .  S
O879       Ni887   1.918       .  S
O879        C889   1.281       .  A
O880       Ni887   1.922       .  S
O880        C890   1.283       .  A
O881       Ni887   1.913       .  S
O881        C891   1.281       .  A
O882       Ni887   1.908       .  S
O882        C892   1.279       .  A
O883       Ni888   1.905       .  S
O883        C892   1.277       .  A
O884       Ni888   1.908       .  S
O884        C891   1.279       .  A
O885       Ni888   1.935       .  S
O885        C890   1.285       .  A
O886       Ni888   1.935       .  S
O886        C889   1.286       .  A
Ni887      Ni888   2.385       .  S
C889       C1472   1.498       .  S
C890       C1433   1.500       .  S
C891       C1445   1.481       .  S
C892       C1460   1.454       .  S
C893        C894   1.531       .  S
C893        C899   1.530       .  S
C893        C897   1.532       .  S
C893       C1409   1.527       .  S
C894        H901   1.085       .  S
C895        C896   1.566       .  S
C895       C1397   1.513       .  S
C896        C900   1.551       .  S
C896        C898   1.557       .  S
C896        H902   1.109       .  S
C897        H903   1.081       .  S
C898       C1075   1.481       .  S
C900       C1424   1.487       .  S
O905       Ni913   1.933       .  S
O905        C915   1.285       .  A
O906       Ni913   1.932       .  S
O906        C916   1.285       .  A
O907       Ni913   1.899       .  S
O907        C917   1.278       .  A
O908       Ni913   1.901       .  S
O908        C918   1.278       .  A
O909       Ni914   1.914       .  S
O909        C918   1.282       .  A
O910       Ni914   1.913       .  S
O910        C917   1.281       .  A
O911       Ni914   1.930       .  S
O911        C916   1.284       .  A
O912       Ni914   1.929       .  S
O912        C915   1.284       .  A
Ni913      Ni914   2.382       .  S
C915       C1373   1.503       .  S
C916       C1421   1.503       .  S
C917       C1412   1.475       .  S
C918       C1385   1.478       .  S
O919       Ni927   1.932       .  S
O919        C929   1.284       .  A
O920        C930   1.285       .  A
O921        C931   1.281       .  A
O922       Ni927   1.908       .  S
O922        C932   1.279       .  A
O923       Ni928   1.908       .  S
O923        C932   1.281       .  A
O924        C931   1.280       .  A
O925        C930   1.283       .  A
O926       Ni928   1.926       .  S
O926        C929   1.283       .  A
Ni927      Ni928   2.382       .  S
C929       C1436   1.501       .  S
C930       C1376   1.503       .  S
C931       C1448   1.481       .  S
C932       C1388   1.478       .  S
C933        C934   1.528       .  S
C933        C939   1.534   1_556  S
C933        C937   1.532       .  S
C933       C1349   1.518       .  S
C934        H941   1.086       .  S
C935        C936   1.560       .  S
C935       C1505   1.508       .  S
C936        C940   1.547       .  S
C936        C938   1.548       .  S
C936        H942   1.108       .  S
C937        H943   1.086   1_545  S
C938       C1117   1.470   1_545  S
C940       C1361   1.481       .  S
O945       Ni953   1.925       .  S
O945        C955   1.284       .  A
O946       Ni953   1.921       .  S
O946        C956   1.282       .  A
O947       Ni953   1.899       .  S
O947        C957   1.277       .  A
O948       Ni953   1.903       .  S
O948        C958   1.279       .  A
O949       Ni954   1.904       .  S
O949        C958   1.279       .  A
O950       Ni954   1.902       .  S
O950        C957   1.277       .  A
O951       Ni954   1.926       .  S
O951        C956   1.284       .  A
O952       Ni954   1.923       .  S
O952        C955   1.283       .  A
Ni953      Ni954   2.387       .  S
C955       C1325   1.495       .  S
C956       C1364   1.493       .  S
C957       C1352   1.450       .  S
C958       C1337   1.472       .  S
C959        C960   1.538       .  S
C959        C965   1.530       .  S
C959        C963   1.526       .  S
C959       C1301   1.525       .  S
C960        H967   1.080       .  S
C960        C961   1.369       .  D
C961       C1289   1.504       .  S
C962        C966   1.552       .  S
C962        H968   1.110       .  S
C963        H969   1.087       .  S
C963        C964   1.357       .  D
C964       C1078   1.476       .  S
C965        H970   1.087       .  S
C966       C1313   1.487       .  S
O971       Ni979   1.924       .  S
O971        C981   1.283       .  A
O972       Ni979   1.929       .  S
O972        C982   1.283       .  A
O973       Ni979   1.911       .  S
O973        C983   1.281       .  A
O974       Ni979   1.912       .  S
O974        C984   1.280       .  A
O975       Ni980   1.901       .  S
O975        C984   1.279       .  A
O976       Ni980   1.903       .  S
O976        C983   1.278       .  A
O977       Ni980   1.930       .  S
O977        C982   1.285       .  A
O978       Ni980   1.930       .  S
O978        C981   1.284       .  A
Ni979      Ni980   2.385       .  S
C981       C1265   1.498       .  S
C982       C1316   1.502       .  S
C983       C1304   1.467       .  S
C984       C1277   1.473       .  S
O985        C995   1.283       .  A
O986       Ni993   1.927       .  S
O986        C996   1.284       .  A
O987       Ni993   1.904       .  S
O987        C997   1.280       .  A
O988        C998   1.280       .  A
O989        C998   1.279       .  A
O990       Ni994   1.903       .  S
O990        C997   1.278       .  A
O991       Ni994   1.925       .  S
O991        C996   1.283       .  A
O992        C995   1.283       .  A
Ni993      Ni994   2.384       .  S
C995       C1328   1.496       .  S
C996       C1268   1.497       .  S
C997       C1340   1.472       .  S
C998       C1280   1.472       .  S
C999       C1000   1.530       .  S
C999       C1005   1.537       .  S
C999       C1003   1.533       .  S
C999       C1241   1.522       .  S
C1000      H1007   1.087       .  S
C1000      C1001   1.363       .  D
C1001      C1400   1.493       .  S
C1002      C1006   1.554       .  S
C1002      H1008   1.110       .  S
C1003      H1009   1.085       .  S
C1003      C1004   1.355       .  D
C1004      C1106   1.475       .  S
C1005      H1010   1.085       .  S
C1006      C1253   1.490       .  S
O1011     Ni1019   1.924       .  S
O1011      C1021   1.283       .  A
O1012     Ni1019   1.924       .  S
O1012      C1022   1.283       .  A
O1013     Ni1019   1.912       .  S
O1013      C1023   1.281       .  A
O1014     Ni1019   1.907       .  S
O1014      C1024   1.280       .  A
O1015     Ni1020   1.900       .  S
O1015      C1024   1.276       .  A
O1016     Ni1020   1.900       .  S
O1016      C1023   1.277       .  A
O1017     Ni1020   1.934       .  S
O1017      C1022   1.285       .  A
O1018     Ni1020   1.937       .  S
O1018      C1021   1.286       .  A
Ni1019    Ni1020   2.385       .  S
C1021      C1256   1.502       .  S
C1022      C1217   1.500       .  S
C1023      C1229   1.473       .  S
C1024      C1244   1.459       .  S
C1025      C1026   1.532       .  S
C1025      C1031   1.530   1_556  S
C1025      C1029   1.533       .  S
C1025      C1193   1.524       .  S
C1026      H1033   1.086       .  S
C1027      C1028   1.557       .  S
C1027      C1292   1.490       .  S
C1028      C1032   1.550       .  S
C1028      C1030   1.557       .  S
C1028      H1034   1.110       .  S
C1029      H1035   1.079   1_455  S
C1030      C1092   1.483   1_455  S
C1032      C1205   1.485       .  S
O1037     Ni1045   1.921       .  S
O1037      C1047   1.282       .  A
O1038     Ni1045   1.922       .  S
O1038      C1048   1.282       .  A
O1039     Ni1045   1.893       .  S
O1039      C1049   1.277       .  A
O1040     Ni1045   1.897       .  S
O1040      C1050   1.279       .  A
O1041     Ni1046   1.913       .  S
O1041      C1050   1.280       .  A
O1042     Ni1046   1.912       .  S
O1042      C1049   1.281       .  A
O1043     Ni1046   1.928       .  S
O1043      C1048   1.284       .  A
O1044     Ni1046   1.926       .  S
O1044      C1047   1.284       .  A
Ni1045    Ni1046   2.385       .  S
C1047      C1169   1.493       .  S
C1048      C1208   1.490       .  S
C1049      C1196   1.469       .  S
C1050      C1181   1.476       .  S
O1051     Ni1059   1.929       .  S
O1051      C1061   1.283       .  A
O1052      C1062   1.283       .  A
O1053      C1063   1.282       .  A
O1054     Ni1059   1.915       .  S
O1054      C1064   1.281       .  A
O1055     Ni1060   1.896       .  S
O1055      C1064   1.277       .  A
O1056      C1063   1.276       .  A
O1057      C1062   1.283       .  A
O1058     Ni1060   1.926       .  S
O1058      C1061   1.284       .  A
Ni1059    Ni1060   2.384       .  S
C1061      C1220   1.499       .  S
C1062      C1172   1.492       .  S
C1063      C1232   1.471       .  S
C1064      C1184   1.477       .  S
O1065     Ni1073   1.929       .  S
O1065      C1075   1.280       .  A
O1066     Ni1073   1.917   1_545  S
O1066      C1076   1.282       .  A
O1067     Ni1073   1.890       .  S
O1067      C1077   1.277       .  A
O1068     Ni1073   1.907   1_545  S
O1068      C1078   1.282       .  A
O1069     Ni1074   1.925   1_545  S
O1070     Ni1074   1.910       .  S
O1071     Ni1074   1.895   1_545  S
O1072     Ni1074   1.906       .  S
C1076      C1145   1.473       .  S
C1077      C1160   1.463       .  S
O1079     Ni1087   1.914       .  S
O1080     Ni1087   1.906       .  S
O1081     Ni1087   1.898       .  S
O1082     Ni1087   1.910       .  S
O1083     Ni1088   1.931       .  S
O1083      C1092   1.280       .  A
O1084     Ni1088   1.919       .  S
O1084      C1091   1.283       .  A
O1085     Ni1088   1.902       .  S
O1085      C1090   1.279       .  A
O1086     Ni1088   1.916       .  S
O1086      C1089   1.284       .  A
C1090      C1148   1.471   1_655  S
C1091      C1136   1.474       .  S
O1093     Ni1101   1.919       .  S
O1093      C1103   1.278       .  A
O1094     Ni1101   1.907       .  S
O1094      C1104   1.280   1_655  A
O1095     Ni1101   1.899       .  S
O1095      C1105   1.279       .  A
O1096     Ni1101   1.911       .  S
O1096      C1106   1.284   1_655  A
O1097     Ni1102   1.918   1_455  S
O1098     Ni1102   1.908       .  S
O1099     Ni1102   1.893       .  S
O1100     Ni1102   1.907       .  S
C1104      C1157   1.463       .  S
C1105      C1124   1.474       .  S
O1107     Ni1115   1.915       .  S
O1107      C1117   1.278       .  A
O1108     Ni1115   1.908       .  S
O1108      C1118   1.280       .  A
O1109     Ni1115   1.903       .  S
O1109      C1119   1.278       .  A
O1110     Ni1115   1.917       .  S
O1110      C1120   1.284       .  A
O1111     Ni1116   1.927       .  S
O1112     Ni1116   1.917       .  S
O1113     Ni1116   1.901       .  S
O1114     Ni1116   1.911       .  S
C1118      C1121   1.474       .  S
C1119      C1133   1.476   1_565  S
C1121      C1126   1.410       .  A
C1122      C1123   1.393       .  A
C1122      H1127   1.083       .  S
C1123      O1128   1.372       .  S
C1124      C1125   1.404       .  A
C1125      C1126   1.393       .  A
C1125      H1129   1.083       .  S
C1126      O1130   1.372       .  S
O1128      H1132   0.992       .  S
O1130      H1131   0.992       .  S
C1133      C1138   1.412       .  A
C1134      C1135   1.396       .  A
C1134      H1139   1.084       .  S
C1135      O1140   1.372       .  S
C1136      C1137   1.401       .  A
C1137      C1138   1.396       .  A
C1137      H1141   1.084       .  S
C1138      O1142   1.371       .  S
O1140      H1144   0.992       .  S
O1142      H1143   0.992       .  S
C1145      C1146   1.405       .  A
C1146      C1147   1.392       .  A
C1146      H1151   1.083       .  S
C1147      C1148   1.408       .  A
C1147      O1152   1.372   1_455  S
C1149      C1150   1.395       .  A
C1149      H1153   1.083       .  S
C1150      O1154   1.371       .  S
O1152      H1156   0.992       .  S
O1154      H1155   0.992       .  S
C1157      C1162   1.406       .  A
C1158      C1159   1.391       .  A
C1158      H1163   1.084       .  S
C1159      O1164   1.372       .  S
C1160      C1161   1.403       .  A
C1161      C1162   1.391       .  A
C1161      H1165   1.084       .  S
C1162      O1166   1.372       .  S
O1164      H1168   0.992       .  S
O1166      H1167   0.992       .  S
C1169      C1170   1.407       .  A
C1169      C1174   1.413       .  A
C1170      C1171   1.404       .  A
C1170      H1175   1.083       .  S
C1171      C1172   1.413       .  A
C1171      O1176   1.371       .  S
C1172      C1173   1.406       .  A
C1173      C1174   1.402       .  A
C1173      H1177   1.083       .  S
C1174      O1178   1.371       .  S
O1176      H1180   0.992       .  S
O1178      H1179   0.992       .  S
C1181      C1182   1.403       .  A
C1181      C1186   1.411       .  A
C1182      C1183   1.389       .  A
C1182      H1187   1.083       .  S
C1183      C1184   1.412       .  A
C1183      O1188   1.372       .  S
C1184      C1185   1.406       .  A
C1185      C1186   1.399       .  A
C1185      H1189   1.083       .  S
C1186      O1190   1.372       .  S
O1188      H1192   0.992       .  S
O1190      H1191   0.992       .  S
C1193      C1194   1.409       .  A
C1193      C1198   1.416       .  A
C1194      C1195   1.389       .  A
C1194      H1199   1.074       .  S
C1195      C1196   1.406       .  A
C1195      O1200   1.373       .  S
C1196      C1197   1.401       .  A
C1197      C1198   1.398       .  A
C1197      H1201   1.084       .  S
C1198      O1202   1.373       .  S
O1200      H1204   0.992   1_455  S
O1202      H1203   0.992       .  S
C1205      C1206   1.402       .  A
C1205      C1210   1.409       .  A
C1206      C1207   1.407       .  A
C1206      H1211   1.084       .  S
C1207      C1208   1.415       .  A
C1207      O1212   1.371       .  S
C1208      C1209   1.404       .  A
C1209      C1210   1.401       .  A
C1209      H1213   1.083       .  S
C1210      O1214   1.372       .  S
O1212      H1216   0.992       .  S
O1214      H1215   0.992       .  S
C1217      C1218   1.408       .  A
C1217      C1222   1.415       .  A
C1218      C1219   1.407       .  A
C1218      H1223   1.083       .  S
C1219      C1220   1.415       .  A
C1219      O1224   1.371       .  S
C1220      C1221   1.407       .  A
C1221      C1222   1.404       .  A
C1221      H1225   1.083       .  S
C1222      O1226   1.372       .  S
O1224      H1228   0.992       .  S
O1226      H1227   0.992       .  S
C1229      C1230   1.403       .  A
C1229      C1234   1.412       .  A
C1230      C1231   1.394       .  A
C1230      H1235   1.084       .  S
C1231      C1232   1.412       .  A
C1231      O1236   1.372       .  S
C1232      C1233   1.401       .  A
C1233      C1234   1.394       .  A
C1233      H1237   1.084       .  S
C1234      O1238   1.372       .  S
O1236      H1240   0.992       .  S
O1238      H1239   0.992       .  S
C1241      C1242   1.412       .  A
C1241      C1246   1.415       .  A
C1242      C1243   1.390       .  A
C1242      H1247   1.081       .  S
C1243      C1244   1.400       .  A
C1243      O1248   1.372       .  S
C1244      C1245   1.401       .  A
C1245      C1246   1.397       .  A
C1245      H1249   1.084       .  S
C1246      O1250   1.371       .  S
O1248      H1252   0.992       .  S
O1250      H1251   0.992       .  S
C1253      C1254   1.404       .  A
C1253      C1258   1.406       .  A
C1254      C1255   1.406       .  A
C1254      H1259   1.084       .  S
C1255      C1256   1.415       .  A
C1255      O1260   1.371       .  S
C1256      C1257   1.412       .  A
C1257      C1258   1.407       .  A
C1257      H1261   1.083       .  S
C1258      O1262   1.371       .  S
O1260      H1264   0.992       .  S
O1262      H1263   0.992       .  S
C1265      C1266   1.408       .  A
C1265      C1270   1.414       .  A
C1266      C1267   1.404       .  A
C1266      H1271   1.083       .  S
C1267      C1268   1.414       .  A
C1267      O1272   1.371       .  S
C1268      C1269   1.408       .  A
C1269      C1270   1.405       .  A
C1269      H1273   1.083       .  S
C1270      O1274   1.371       .  S
O1272      H1276   0.992       .  S
O1274      H1275   0.992       .  S
C1277      C1278   1.404       .  A
C1277      C1282   1.409       .  A
C1278      C1279   1.393       .  A
C1278      H1283   1.084       .  S
C1279      C1280   1.409       .  A
C1279      O1284   1.372       .  S
C1280      C1281   1.405       .  A
C1281      C1282   1.396       .  A
C1281      H1285   1.084       .  S
C1282      O1286   1.372       .  S
O1284      H1288   0.992       .  S
O1286      H1287   0.992       .  S
C1289      C1294   1.416       .  A
C1290      C1291   1.413       .  A
C1290      H1295   1.083       .  S
C1291      O1296   1.371       .  S
C1292      C1293   1.400       .  A
C1293      C1294   1.400       .  A
C1293      H1297   1.084       .  S
C1294      O1298   1.372       .  S
O1296      H1300   0.992   1_556  S
O1298      H1299   0.992       .  S
C1301      C1302   1.410       .  A
C1301      C1306   1.417       .  A
C1302      C1303   1.397       .  A
C1302      H1307   1.077       .  S
C1303      C1304   1.405       .  A
C1303      O1308   1.372       .  S
C1304      C1305   1.397       .  A
C1305      C1306   1.395       .  A
C1305      H1309   1.084       .  S
C1306      O1310   1.374       .  S
O1308      H1312   0.992       .  S
O1310      H1311   0.992       .  S
C1313      C1314   1.402       .  A
C1313      C1318   1.407       .  A
C1314      C1315   1.408       .  A
C1314      H1319   1.084       .  S
C1315      C1316   1.418       .  A
C1315      O1320   1.371       .  S
C1316      C1317   1.410       .  A
C1317      C1318   1.405       .  A
C1317      H1321   1.083       .  S
C1318      O1322   1.371       .  S
O1320      H1324   0.992       .  S
O1322      H1323   0.992       .  S
C1325      C1326   1.407       .  A
C1325      C1330   1.414       .  A
C1326      C1327   1.403       .  A
C1326      H1331   1.083       .  S
C1327      C1328   1.414       .  A
C1327      O1332   1.371       .  S
C1328      C1329   1.408       .  A
C1329      C1330   1.404       .  A
C1329      H1333   1.083       .  S
C1330      O1334   1.371       .  S
O1332      H1336   0.992       .  S
O1334      H1335   0.992       .  S
C1337      C1338   1.404       .  A
C1337      C1342   1.410       .  A
C1338      C1339   1.393       .  A
C1338      H1343   1.084       .  S
C1339      C1340   1.410       .  A
C1339      O1344   1.372       .  S
C1340      C1341   1.404       .  A
C1341      C1342   1.394       .  A
C1341      H1345   1.084       .  S
C1342      O1346   1.372       .  S
O1344      H1348   0.992       .  S
O1346      H1347   0.992       .  S
C1349      C1350   1.410       .  A
C1349      C1354   1.418       .  A
C1350      C1351   1.393       .  A
C1350      H1355   1.079       .  S
C1351      C1352   1.400       .  A
C1351      O1356   1.372       .  S
C1352      C1353   1.394       .  A
C1353      C1354   1.391       .  A
C1353      H1357   1.084       .  S
C1354      O1358   1.372       .  S
O1356      H1360   0.992       .  S
O1358      H1359   0.992       .  S
C1361      C1362   1.401       .  A
C1361      C1366   1.407       .  A
C1362      C1363   1.405       .  A
C1362      H1367   1.084       .  S
C1363      C1364   1.416       .  A
C1363      O1368   1.371       .  S
C1364      C1365   1.407       .  A
C1365      C1366   1.401       .  A
C1365      H1369   1.083       .  S
C1366      O1370   1.372       .  S
O1368      H1372   0.992       .  S
O1370      H1371   0.992       .  S
C1373      C1374   1.408       .  A
C1373      C1378   1.415       .  A
C1374      C1375   1.407       .  A
C1374      H1379   1.083       .  S
C1375      C1376   1.416       .  A
C1375      O1380   1.371       .  S
C1376      C1377   1.408       .  A
C1377      C1378   1.407       .  A
C1377      H1381   1.083       .  S
C1378      O1382   1.371       .  S
O1380      H1384   0.992       .  S
O1382      H1383   0.992       .  S
C1385      C1386   1.404       .  A
C1385      C1390   1.412       .  A
C1386      C1387   1.397       .  A
C1386      H1391   1.083       .  S
C1387      C1388   1.412       .  A
C1387      O1392   1.372       .  S
C1388      C1389   1.403       .  A
C1389      C1390   1.393       .  A
C1389      H1393   1.083       .  S
C1390      O1394   1.372       .  S
O1392      H1396   0.992       .  S
O1394      H1395   0.992       .  S
C1397      C1402   1.413       .  A
C1398      C1399   1.400       .  A
C1398      H1403   1.083       .  S
C1399      O1404   1.372       .  S
C1400      C1401   1.409       .  A
C1401      C1402   1.417       .  A
C1401      H1405   1.083       .  S
C1402      O1406   1.370       .  S
O1404      H1408   0.992       .  S
O1406      H1407   0.992       .  S
C1409      C1410   1.410       .  A
C1409      C1414   1.415       .  A
C1410      C1411   1.392       .  A
C1410      H1415   1.076       .  S
C1411      C1412   1.408       .  A
C1411      O1416   1.372       .  S
C1412      C1413   1.402       .  A
C1413      C1414   1.399       .  A
C1413      H1417   1.083       .  S
C1414      O1418   1.373       .  S
O1416      H1420   0.992       .  S
O1418      H1419   0.992       .  S
C1421      C1422   1.410       .  A
C1421      C1426   1.418       .  A
C1422      C1423   1.405       .  A
C1422      H1427   1.083       .  S
C1423      C1424   1.407       .  A
C1423      O1428   1.372       .  S
C1424      C1425   1.401       .  A
C1425      C1426   1.408       .  A
C1425      H1429   1.084       .  S
C1426      O1430   1.371       .  S
O1428      H1432   0.992       .  S
O1430      H1431   0.992       .  S
C1433      C1434   1.408       .  A
C1433      C1438   1.414       .  A
C1434      C1435   1.403       .  A
C1434      H1439   1.083       .  S
C1435      C1436   1.414       .  A
C1435      O1440   1.371       .  S
C1436      C1437   1.409       .  A
C1437      C1438   1.408       .  A
C1437      H1441   1.083       .  S
C1438      O1442   1.371       .  S
O1440      H1444   0.992       .  S
O1442      H1443   0.992       .  S
C1445      C1446   1.405       .  A
C1445      C1450   1.412       .  A
C1446      C1447   1.398       .  A
C1446      H1451   1.083       .  S
C1447      C1448   1.412       .  A
C1447      O1452   1.372       .  S
C1448      C1449   1.405       .  A
C1449      C1450   1.395       .  A
C1449      H1453   1.083       .  S
C1450      O1454   1.372       .  S
O1452      H1456   0.992       .  S
O1454      H1455   0.992       .  S
C1457      C1458   1.411       .  A
C1457      C1462   1.418       .  A
C1458      C1459   1.394       .  A
C1458      H1463   1.076       .  S
C1459      C1460   1.400       .  A
C1459      O1464   1.372       .  S
C1460      C1461   1.394       .  A
C1461      C1462   1.395       .  A
C1461      H1465   1.084       .  S
C1462      O1466   1.373       .  S
O1464      H1468   0.992       .  S
O1466      H1467   0.992       .  S
C1469      C1470   1.405       .  A
C1469      C1474   1.405       .  A
C1470      C1471   1.404       .  A
C1470      H1475   1.084       .  S
C1471      C1472   1.413       .  A
C1471      O1476   1.372       .  S
C1472      C1473   1.412       .  A
C1473      C1474   1.405       .  A
C1473      H1477   1.083       .  S
C1474      O1478   1.371       .  S
O1476      H1480   0.992       .  S
O1478      H1479   0.992       .  S
C1481      C1482   1.406       .  A
C1481      C1486   1.416       .  A
C1482      C1483   1.404       .  A
C1482      H1487   1.083       .  S
C1483      C1484   1.415       .  A
C1483      O1488   1.372       .  S
C1484      C1485   1.406       .  A
C1485      C1486   1.405       .  A
C1485      H1489   1.083       .  S
C1486      O1490   1.371       .  S
O1488      H1492   0.992       .  S
O1490      H1491   0.992       .  S
C1493      C1494   1.401       .  A
C1493      C1498   1.410       .  A
C1494      C1495   1.395       .  A
C1494      H1499   1.084       .  S
C1495      C1496   1.410       .  A
C1495      O1500   1.372       .  S
C1496      C1497   1.400       .  A
C1497      C1498   1.392       .  A
C1497      H1501   1.084       .  S
C1498      O1502   1.372       .  S
O1500      H1504   0.992       .  S
O1502      H1503   0.992       .  S
C1505      C1510   1.409       .  A
C1506      C1507   1.406       .  A
C1506      H1511   1.082       .  S
C1507      O1512   1.371       .  S
C1508      C1509   1.413       .  A
C1509      C1510   1.405       .  A
C1509      H1513   1.083       .  S
C1510      O1514   1.370       .  S
O1512      H1516   0.992       .  S
O1514      H1515   0.992       .  S
C1517      C1518   1.393       .  A
C1517      C1522   1.401       .  A
C1518      C1519   1.394       .  A
C1518      H1523   1.084       .  S
C1519      C1520   1.419       .  A
C1519      O1524   1.374       .  S
C1520      C1521   1.410       .  A
C1521      C1522   1.393       .  A
C1521      H1525   1.076       .  S
C1522      O1526   1.373       .  S
O1524      H1528   0.992       .  S
O1526      H1527   0.992       .  S
C1529      C1530   1.407       .  A
C1529      C1534   1.419       .  A
C1530      C1531   1.402       .  A
C1530      H1535   1.083       .  S
C1531      C1532   1.408       .  A
C1531      O1536   1.371       .  S
C1532      C1533   1.400       .  A
C1533      C1534   1.405       .  A
C1533      H1537   1.084       .  S
C1534      O1538   1.372       .  S
O1536      H1540   0.992       .  S
O1538      H1539   0.992       .  S
C1541      C1542   1.409       .  A
C1541      C1546   1.413       .  A
C1542      C1543   1.405       .  A
C1542      H1547   1.083       .  S
C1543      C1544   1.414       .  A
C1543      O1548   1.371       .  S
C1544      C1545   1.408       .  A
C1545      C1546   1.403       .  A
C1545      H1549   1.083       .  S
C1546      O1550   1.371       .  S
O1548      H1552   0.992       .  S
O1550      H1551   0.992       .  S
C1553      C1554   1.402       .  A
C1553      C1558   1.410       .  A
C1554      C1555   1.389       .  A
C1554      H1559   1.084       .  S
C1555      C1556   1.411       .  A
C1555      O1560   1.372       .  S
C1556      C1557   1.404       .  A
C1557      C1558   1.396       .  A
C1557      H1561   1.083       .  S
C1558      O1562   1.372       .  S
O1560      H1564   0.992       .  S
O1562      H1563   0.992       .  S
C1565      C1566   1.408       .  A
C1565      C1570   1.407       .  A
C1566      C1567   1.414       .  A
C1566      H1571   1.084       .  S
C1567      C1568   1.412       .  A
C1567      O1572   1.370       .  S
C1568      C1569   1.406       .  A
C1569      C1570   1.397       .  A
C1569      H1573   1.084       .  S
O1572      H1576   0.992       .  S
O1574      H1575   0.992   1_554  S
C1577      C1578   1.408       .  A
C1577      C1582   1.412       .  A
C1578      C1579   1.389       .  A
C1578      H1583   1.078       .  S
C1579      C1580   1.407       .  A
C1579      O1584   1.372       .  S
C1580      C1581   1.403       .  A
C1581      C1582   1.393       .  A
C1581      H1585   1.083       .  S
C1582      O1586   1.372       .  S
O1584      H1588   0.992       .  S
O1586      H1587   0.992       .  S
C1589      C1590   1.407       .  A
C1589      C1594   1.416       .  A
C1590      C1591   1.402       .  A
C1590      H1595   1.083       .  S
C1591      C1592   1.408       .  A
C1591      O1596   1.373       .  S
C1592      C1593   1.403       .  A
C1593      C1594   1.410       .  A
C1593      H1597   1.084       .  S
C1594      O1598   1.371       .  S
O1596      H1600   0.992       .  S
O1598      H1599   0.992       .  S
