geometry optimzed in LAMMPS
_audit_creation_date              2020-11-30 
_audit_creation_method            'lammps2cif' 
_symmetry_space_group_name_H-M    'P1' 
_symmetry_Int_Tables_number       1 
_symmetry_cell_setting            triclinic 
loop_ 
_symmetry_equiv_pos_as_xyz 
  x,y,z 
_cell_length_a                    35.99384065 
_cell_length_b                    36.00340029148506 
_cell_length_c                    22.551273451206402 
_cell_angle_alpha                 90.00105431304105 
_cell_angle_beta                  89.99873458427932 
_cell_angle_gamma                 80.1829926465028 
loop_ 
_atom_site_label 
_atom_site_type_symbol 
_atom_site_fract_x 
_atom_site_fract_y 
_atom_site_fract_z 
_atom_site_charge 
N1          N  0.50533842  0.43746310  0.11239521    -0.03900
N2          N  0.49259824  0.41513940  0.15111985    -0.56000
N3          N  0.08123461  0.47310260  0.07108712    -0.03600
N4          N  0.11762243  0.47168119  0.08076360    -0.58100
N5          N  0.06122316  0.49323755  0.11235957    -0.03200
N6          N  0.08357972  0.00597448  0.15103439    -0.56000
N7          N  0.02542737  0.41742500  0.07110175    -0.02800
N8          N  0.02681221  0.38105519  0.08081117    -0.58500
C9          C  0.50602398  0.38020480  0.13047022     0.98300
C10         C  0.11850742  0.99249598  0.13038165     0.98100
N11         N  0.06122367  0.49324094  0.39018406    -0.04100
N12         N  0.08358077  0.00598060  0.35151280    -0.56600
N13         N  0.02542776  0.41742769  0.43143299    -0.02200
N14         N  0.02681118  0.38105815  0.42172158    -0.57800
N15         N  0.50533960  0.43746639  0.39014177    -0.04100
N16         N  0.49259863  0.41514330  0.35141670    -0.56800
N17         N  0.08123422  0.47310544  0.43145437    -0.01800
N18         N  0.11762209  0.47168626  0.42177986    -0.57900
Mn19       Mn  0.05418857  0.44440138  0.50126864     1.18400
C20         C  0.11850773  0.99250322  0.37216569     1.00400
C21         C  0.50602309  0.38020862  0.37206379     1.01000
N22         N  0.99323707  0.06131029  0.11239479    -0.04100
N23         N  0.00596612  0.08363945  0.15112370    -0.60400
N24         N  0.41734442  0.02566161  0.07108880    -0.02900
N25         N  0.38095714  0.02707745  0.08076467    -0.61100
N26         N  0.43735710  0.00553161  0.11236235    -0.03600
N27         N  0.41500218  0.49279140  0.15103650    -0.60700
N28         N  0.47314390  0.08134386  0.07110355    -0.02500
N29         N  0.47174592  0.11771475  0.08081676    -0.61400
Mn30       Mn  0.49928962  0.49938615  0.11421483     1.10700
C31         C  0.99253003  0.11857190  0.13047609     1.01600
C32         C  0.38007427  0.50626358  0.13038287     1.01700
N33         N  0.43735775  0.00553462  0.39017665    -0.03600
N34         N  0.41500343  0.49279649  0.35149958    -0.59000
N35         N  0.47314446  0.08134648  0.43144433    -0.02900
N36         N  0.47174555  0.11771761  0.42173373    -0.55700
N37         N  0.99323822  0.06131351  0.39015063    -0.04300
N38         N  0.00596692  0.08364331  0.35142269    -0.58600
N39         N  0.41734423  0.02566401  0.43145246    -0.03200
N40         N  0.38095701  0.02708142  0.42177534    -0.55700
Mn41       Mn  0.99929081  0.99938909  0.38832629     1.20200
Mn42       Mn  0.44438708  0.05436588  0.00127265     1.10100
Cl43       Cl  0.99928968  0.99938585  0.00127058    -0.83700
C44         C  0.38007483  0.50626923  0.37215377     0.98600
C45         C  0.99253000  0.11857565  0.37207337     0.98400
C46         C  0.49904909  0.28319996  0.28250563     0.04500
C47         C  0.49905042  0.28319805  0.22003246     0.04500
C48         C  0.49923865  0.24939700  0.18918249    -0.16000
C49         C  0.49942956  0.21559763  0.22003647     0.04500
C50         C  0.49942844  0.21559951  0.28250904     0.04500
C51         C  0.49923624  0.24940104  0.31335931    -0.16000
H52         H  0.49923768  0.24940217  0.36146000     0.06500
H53         H  0.49924188  0.24939476  0.14108177     0.06500
C54         C  0.28308346  0.49927993  0.28250706     0.04500
C55         C  0.28308333  0.49927646  0.22003270     0.04500
C56         C  0.24929289  0.49936850  0.18918440    -0.16000
C57         C  0.21550198  0.49946455  0.22003533     0.04500
C58         C  0.21550212  0.49946829  0.28250985     0.04500
C59         C  0.24929272  0.49937558  0.31335812    -0.16000
H60         H  0.24929239  0.49937908  0.36145940     0.06500
H61         H  0.24929306  0.49936674  0.14108318     0.06600
C62         C  0.15259057  0.99679101  0.16055787    -0.11000
C63         C  0.18130151  0.49871881  0.18696993    -0.12600
C64         C  0.18130212  0.49872599  0.31557822    -0.11000
C65         C  0.15259098  0.99679946  0.34199114    -0.12600
C66         C  0.34599238  0.50195952  0.16055444    -0.11000
C67         C  0.31728230  0.50002517  0.18696493    -0.12600
C68         C  0.34599306  0.50196615  0.34198105    -0.11000
C69         C  0.31728297  0.50003121  0.31557170    -0.12600
C70         C  0.99875391  0.18137992  0.18699440    -0.11000
C71         C  0.99684707  0.15264411  0.16065254    -0.12600
C72         C  0.99875229  0.18138348  0.31555454    -0.11000
C73         C  0.99684579  0.15264836  0.34189776    -0.12600
C74         C  0.49974934  0.31740913  0.18698507    -0.11000
C75         C  0.50168221  0.34613698  0.16063856    -0.12600
C76         C  0.50167976  0.34614132  0.34189494    -0.11000
C77         C  0.49974674  0.31741281  0.31554965    -0.12600
N78         N  0.50533845  0.43746309  0.61239518    -0.03900
N79         N  0.49259825  0.41513938  0.65111977    -0.56000
N80         N  0.08123463  0.47310267  0.57108703    -0.03600
N81         N  0.11762246  0.47168115  0.58076360    -0.58100
N82         N  0.06122318  0.49323764  0.61235947    -0.03200
N83         N  0.08357972  0.00597453  0.65103433    -0.56000
N84         N  0.02542743  0.41742495  0.57110175    -0.02800
N85         N  0.02681223  0.38105516  0.58081113    -0.58500
C86         C  0.50602402  0.38020477  0.63047018     0.98300
C87         C  0.11850743  0.99249596  0.63038170     0.98100
N88         N  0.06122364  0.49324092  0.89018419    -0.04100
N89         N  0.08358073  0.00598057  0.85151293    -0.56600
N90         N  0.02542772  0.41742771  0.93143293    -0.02200
N91         N  0.02681115  0.38105816  0.92172154    -0.57800
N92         N  0.50533962  0.43746640  0.89014161    -0.04100
N93         N  0.49259873  0.41514330  0.85141654    -0.56800
N94         N  0.08123422  0.47310541  0.93145447    -0.01800
N95         N  0.11762210  0.47168626  0.92177994    -0.57900
Mn96       Mn  0.05418858  0.44440133  0.00126864     1.18400
C97         C  0.11850771  0.99250316  0.87216567     1.00400
C98         C  0.50602315  0.38020860  0.87206368     1.01000
N99         N  0.99323696  0.06131031  0.61239495    -0.04100
N100        N  0.00596604  0.08363950  0.65112375    -0.60400
N101        N  0.41734444  0.02566160  0.57108887    -0.02900
N102        N  0.38095715  0.02707750  0.58076481    -0.61100
N103        N  0.43735709  0.00553160  0.61236241    -0.03600
N104        N  0.41500223  0.49279149  0.65103674    -0.60700
N105        N  0.47314391  0.08134385  0.57110357    -0.02500
N106        N  0.47174595  0.11771475  0.58081669    -0.61400
Mn107      Mn  0.49928963  0.49938619  0.61421486     1.10700
C108        C  0.99253000  0.11857195  0.63047604     1.01600
C109        C  0.38007432  0.50626358  0.63038303     1.01700
N110        N  0.43735775  0.00553454  0.89017667    -0.03600
N111        N  0.41500339  0.49279643  0.85149959    -0.59000
N112        N  0.47314446  0.08134640  0.93144437    -0.02900
N113        N  0.47174557  0.11771755  0.92173379    -0.55700
N114        N  0.99323824  0.06131346  0.89015070    -0.04300
N115        N  0.00596699  0.08364327  0.85142278    -0.58600
N116        N  0.41734424  0.02566386  0.93145257    -0.03200
N117        N  0.38095703  0.02708130  0.92177545    -0.55700
Mn118      Mn  0.99929080  0.99938902  0.88832634     1.20200
Mn119      Mn  0.44438710  0.05436591  0.50127260     1.10100
Cl120      Cl  0.99928969  0.99938579  0.50127060    -0.83700
C121        C  0.38007483  0.50626914  0.87215388     0.98600
C122        C  0.99253005  0.11857561  0.87207348     0.98400
C123        C  0.49904913  0.28319998  0.78250565     0.04500
C124        C  0.49905044  0.28319811  0.72003248     0.04500
C125        C  0.49923867  0.24939707  0.68918261    -0.16000
C126        C  0.49942957  0.21559768  0.72003651     0.04500
C127        C  0.49942845  0.21559955  0.78250912     0.04500
C128        C  0.49923627  0.24940108  0.81335926    -0.16000
H129        H  0.49923771  0.24940224  0.86146017     0.06500
H130        H  0.49924189  0.24939487  0.64108173     0.06500
C131        C  0.28308345  0.49927994  0.78250702     0.04500
C132        C  0.28308333  0.49927643  0.72003267     0.04500
C133        C  0.24929290  0.49936852  0.68918434    -0.16000
C134        C  0.21550197  0.49946467  0.72003529     0.04500
C135        C  0.21550210  0.49946835  0.78250980     0.04500
C136        C  0.24929272  0.49937552  0.81335805    -0.16000
H137        H  0.24929237  0.49937895  0.86145927     0.06500
H138        H  0.24929310  0.49936677  0.64108308     0.06600
C139        C  0.15259056  0.99679102  0.66055796    -0.11000
C140        C  0.18130150  0.49871887  0.68696995    -0.12600
C141        C  0.18130208  0.49872609  0.81557820    -0.11000
C142        C  0.15259094  0.99679951  0.84199106    -0.12600
C143        C  0.34599243  0.50195945  0.66055455    -0.11000
C144        C  0.31728232  0.50002516  0.68696496    -0.12600
C145        C  0.34599301  0.50196620  0.84198113    -0.11000
C146        C  0.31728293  0.50003132  0.81557171    -0.12600
C147        C  0.99875392  0.18137998  0.68699441    -0.11000
C148        C  0.99684709  0.15264421  0.66065241    -0.12600
C149        C  0.99875230  0.18138353  0.81555468    -0.11000
C150        C  0.99684581  0.15264840  0.84189791    -0.12600
C151        C  0.49974934  0.31740919  0.68698514    -0.11000
C152        C  0.50168220  0.34613699  0.66063852    -0.12600
C153        C  0.50167980  0.34614130  0.84189493    -0.11000
C154        C  0.49974679  0.31741279  0.81554964    -0.12600
N155        N  0.50533846  0.93746307  0.11239518    -0.03900
N156        N  0.49259826  0.91513936  0.15111980    -0.56000
N157        N  0.08123459  0.97310268  0.07108705    -0.03600
N158        N  0.11762245  0.97168118  0.08076355    -0.58100
N159        N  0.06122319  0.99323760  0.11235953    -0.03200
N160        N  0.08357967  0.50597454  0.15103431    -0.56000
N161        N  0.02542745  0.91742493  0.07110177    -0.02800
N162        N  0.02681229  0.88105513  0.08081119    -0.58500
C163        C  0.50602399  0.88020475  0.13047019     0.98300
C164        C  0.11850740  0.49249610  0.13038159     0.98100
N165        N  0.06122359  0.99324092  0.39018404    -0.04100
N166        N  0.08358085  0.50598058  0.35151280    -0.56600
N167        N  0.02542784  0.91742766  0.43143295    -0.02200
N168        N  0.02681124  0.88105811  0.42172156    -0.57800
N169        N  0.50533970  0.93746637  0.39014172    -0.04100
N170        N  0.49259870  0.91514329  0.35141672    -0.56800
N171        N  0.08123416  0.97310538  0.43145431    -0.01800
N172        N  0.11762202  0.97168626  0.42177986    -0.57900
Mn173      Mn  0.05418863  0.94440130  0.50126863     1.18400
C174        C  0.11850780  0.49250318  0.37216567     1.00400
C175        C  0.50602310  0.88020859  0.37206384     1.01000
N176        N  0.99323695  0.56131027  0.11239490    -0.04100
N177        N  0.00596604  0.58363943  0.15112376    -0.60400
N178        N  0.41734438  0.52566166  0.07108880    -0.02900
N179        N  0.38095712  0.52707752  0.08076475    -0.61100
N180        N  0.43735709  0.50553161  0.11236230    -0.03600
N181        N  0.41500216  0.99279140  0.15103655    -0.60700
N182        N  0.47314393  0.58134383  0.07110354    -0.02500
N183        N  0.47174603  0.61771472  0.08081664    -0.61400
Mn184      Mn  0.49928966  0.99938617  0.11421482     1.10700
C185        C  0.99253008  0.61857189  0.13047601     1.01600
C186        C  0.38007427  0.00626353  0.13038281     1.01700
N187        N  0.43735765  0.50553459  0.39017668    -0.03600
N188        N  0.41500351  0.99279641  0.35149965    -0.59000
N189        N  0.47314437  0.58134643  0.43144427    -0.02900
N190        N  0.47174556  0.61771757  0.42173370    -0.55700
N191        N  0.99323818  0.56131347  0.39015063    -0.04300
N192        N  0.00596695  0.58364325  0.35142270    -0.58600
N193        N  0.41734412  0.52566396  0.43145254    -0.03200
N194        N  0.38095691  0.52708137  0.42177542    -0.55700
Mn195      Mn  0.99929083  0.49938909  0.38832630     1.20200
Mn196      Mn  0.44438701  0.55436592  0.00127263     1.10100
Cl197      Cl  0.99928970  0.49938586  0.00127057    -0.83700
C198        C  0.38007492  0.00626919  0.37215380     0.98600
C199        C  0.99253000  0.61857560  0.37207335     0.98400
C200        C  0.49904903  0.78319996  0.28250564     0.04500
C201        C  0.49905039  0.78319808  0.22003247     0.04500
C202        C  0.49923852  0.74939708  0.18918247    -0.16000
C203        C  0.49942948  0.71559769  0.22003646     0.04500
C204        C  0.49942845  0.71559953  0.28250904     0.04500
C205        C  0.49923615  0.74940106  0.31335931    -0.16000
H206        H  0.49923760  0.74940219  0.36146000     0.06500
H207        H  0.49924168  0.74939488  0.14108175     0.06500
C208        C  0.28308345  0.99927998  0.28250709     0.04500
C209        C  0.28308332  0.99927652  0.22003274     0.04500
C210        C  0.24929289  0.99936858  0.18918441    -0.16000
C211        C  0.21550196  0.99946465  0.22003531     0.04500
C212        C  0.21550208  0.99946838  0.28250985     0.04500
C213        C  0.24929269  0.99937567  0.31335812    -0.16000
H214        H  0.24929233  0.99937914  0.36145939     0.06500
H215        H  0.24929311  0.99936680  0.14108319     0.06600
C216        C  0.15259055  0.49679115  0.16055783    -0.11000
C217        C  0.18130150  0.99871883  0.18696991    -0.12600
C218        C  0.18130208  0.99872606  0.31557826    -0.11000
C219        C  0.15259104  0.49679941  0.34199110    -0.12600
C220        C  0.34599237  0.00195945  0.16055437    -0.11000
C221        C  0.31728233  0.00002511  0.18696499    -0.12600
C222        C  0.34599311  0.00196608  0.34198107    -0.11000
C223        C  0.31728299  0.00003116  0.31557176    -0.12600
C224        C  0.99875396  0.68137996  0.18699436    -0.11000
C225        C  0.99684716  0.65264414  0.16065245    -0.12600
C226        C  0.99875240  0.68138348  0.31555458    -0.11000
C227        C  0.99684588  0.65264835  0.34189779    -0.12600
C228        C  0.49974927  0.81740917  0.18698513    -0.11000
C229        C  0.50168222  0.84613698  0.16063860    -0.12600
C230        C  0.50167986  0.84614128  0.34189492    -0.11000
C231        C  0.49974684  0.81741275  0.31554968    -0.12600
N232        N  0.50533836  0.93746312  0.61239516    -0.03900
N233        N  0.49259824  0.91513940  0.65111980    -0.56000
N234        N  0.08123463  0.97310265  0.57108704    -0.03600
N235        N  0.11762249  0.97168107  0.58076366    -0.58100
N236        N  0.06122321  0.99323767  0.61235941    -0.03200
N237        N  0.08357970  0.50597451  0.65103434    -0.56000
N238        N  0.02542738  0.91742499  0.57110169    -0.02800
N239        N  0.02681227  0.88105520  0.58081116    -0.58500
C240        C  0.50602402  0.88020478  0.63047020     0.98300
C241        C  0.11850742  0.49249598  0.63038170     0.98100
N242        N  0.06122359  0.99324087  0.89018418    -0.04100
N243        N  0.08358080  0.50598050  0.85151286    -0.56600
N244        N  0.02542770  0.91742764  0.93143301    -0.02200
N245        N  0.02681115  0.88105813  0.92172152    -0.57800
N246        N  0.50533959  0.93746635  0.89014170    -0.04100
N247        N  0.49259874  0.91514329  0.85141655    -0.56800
N248        N  0.08123417  0.97310536  0.93145441    -0.01800
N249        N  0.11762204  0.97168620  0.92177985    -0.57900
Mn250      Mn  0.05418858  0.94440133  0.00126865     1.18400
C251        C  0.11850777  0.49250311  0.87216566     1.00400
C252        C  0.50602313  0.88020859  0.87206365     1.01000
N253        N  0.99323695  0.56131027  0.61239489    -0.04100
N254        N  0.00596602  0.58363937  0.65112379    -0.60400
N255        N  0.41734440  0.52566162  0.57108884    -0.02900
N256        N  0.38095714  0.52707741  0.58076479    -0.61100
N257        N  0.43735712  0.50553167  0.61236244    -0.03600
N258        N  0.41500216  0.99279137  0.65103665    -0.60700
N259        N  0.47314396  0.58134385  0.57110349    -0.02500
N260        N  0.47174608  0.61771473  0.58081669    -0.61400
Mn261      Mn  0.49928959  0.99938620  0.61421490     1.10700
C262        C  0.99253010  0.61857185  0.63047608     1.01600
C263        C  0.38007429  0.00626358  0.63038295     1.01700
N264        N  0.43735765  0.50553459  0.89017666    -0.03600
N265        N  0.41500348  0.99279648  0.85149951    -0.59000
N266        N  0.47314435  0.58134646  0.93144433    -0.02900
N267        N  0.47174557  0.61771761  0.92173377    -0.55700
N268        N  0.99323812  0.56131350  0.89015072    -0.04300
N269        N  0.00596698  0.58364326  0.85142282    -0.58600
N270        N  0.41734416  0.52566392  0.93145251    -0.03200
N271        N  0.38095693  0.52708132  0.92177545    -0.55700
Mn272      Mn  0.99929077  0.49938909  0.88832633     1.20200
Mn273      Mn  0.44438700  0.55436597  0.50127258     1.10100
Cl274      Cl  0.99928960  0.49938590  0.50127061    -0.83700
C275        C  0.38007491  0.00626921  0.87215375     0.98600
C276        C  0.99253006  0.61857560  0.87207346     0.98400
C277        C  0.49904906  0.78319996  0.78250564     0.04500
C278        C  0.49905043  0.78319803  0.72003246     0.04500
C279        C  0.49923858  0.74939696  0.68918262    -0.16000
C280        C  0.49942947  0.71559758  0.72003654     0.04500
C281        C  0.49942833  0.71559951  0.78250914     0.04500
C282        C  0.49923614  0.74940105  0.81335926    -0.16000
H283        H  0.49923766  0.74940221  0.86146017     0.06500
H284        H  0.49924177  0.74939471  0.64108173     0.06500
C285        C  0.28308350  0.99927984  0.78250706     0.04500
C286        C  0.28308337  0.99927638  0.72003271     0.04500
C287        C  0.24929296  0.99936838  0.68918435    -0.16000
C288        C  0.21550202  0.99946450  0.72003528     0.04500
C289        C  0.21550211  0.99946838  0.78250981     0.04500
C290        C  0.24929274  0.99937556  0.81335806    -0.16000
H291        H  0.24929236  0.99937908  0.86145928     0.06500
H292        H  0.24929317  0.99936661  0.64108307     0.06600
C293        C  0.15259055  0.49679104  0.66055795    -0.11000
C294        C  0.18130154  0.99871872  0.68696994    -0.12600
C295        C  0.18130206  0.99872617  0.81557824    -0.11000
C296        C  0.15259099  0.49679944  0.84199106    -0.12600
C297        C  0.34599239  0.00195956  0.66055450    -0.11000
C298        C  0.31728235  0.00002517  0.68696502    -0.12600
C299        C  0.34599308  0.00196617  0.84198110    -0.11000
C300        C  0.31728297  0.00003122  0.81557177    -0.12600
C301        C  0.99875403  0.68137982  0.68699448    -0.11000
C302        C  0.99684726  0.65264403  0.66065248    -0.12600
C303        C  0.99875237  0.68138348  0.81555472    -0.11000
C304        C  0.99684594  0.65264833  0.84189789    -0.12600
C305        C  0.49974930  0.81740914  0.68698511    -0.11000
C306        C  0.50168224  0.84613695  0.66063852    -0.12600
C307        C  0.50167985  0.84614132  0.84189481    -0.11000
C308        C  0.49974685  0.81741278  0.81554958    -0.12600
N309        N  0.00533843  0.43746310  0.11239521    -0.03900
N310        N  0.99259824  0.41513940  0.15111985    -0.56000
N311        N  0.58123460  0.47310260  0.07108712    -0.03600
N312        N  0.61762242  0.47168119  0.08076360    -0.58100
N313        N  0.56122315  0.49323755  0.11235957    -0.03200
N314        N  0.58357971  0.00597449  0.15103439    -0.56000
N315        N  0.52542736  0.41742500  0.07110174    -0.02800
N316        N  0.52681220  0.38105519  0.08081117    -0.58500
C317        C  0.00602399  0.38020480  0.13047022     0.98300
C318        C  0.61850741  0.99249598  0.13038165     0.98100
N319        N  0.56122363  0.49324094  0.39018405    -0.04100
N320        N  0.58358076  0.00598060  0.35151280    -0.56600
N321        N  0.52542774  0.41742770  0.43143299    -0.02200
N322        N  0.52681118  0.38105815  0.42172158    -0.57800
N323        N  0.00533964  0.43746639  0.39014177    -0.04100
N324        N  0.99259865  0.41514331  0.35141671    -0.56800
N325        N  0.58123419  0.47310545  0.43145436    -0.01800
N326        N  0.61762206  0.47168627  0.42177986    -0.57900
Mn327      Mn  0.55418856  0.44440138  0.50126863     1.18400
C328        C  0.61850772  0.99250322  0.37216569     1.00400
C329        C  0.00602310  0.38020862  0.37206380     1.01000
N330        N  0.49323702  0.06131029  0.11239481    -0.04100
N331        N  0.50596612  0.08363945  0.15112365    -0.60400
N332        N  0.91734441  0.02566162  0.07108881    -0.02900
N333        N  0.88095713  0.02707745  0.08076467    -0.61100
N334        N  0.93735710  0.00553161  0.11236235    -0.03600
N335        N  0.91500219  0.49279139  0.15103651    -0.60700
N336        N  0.97314399  0.08134385  0.07110350    -0.02500
N337        N  0.97174597  0.11771474  0.08081674    -0.61400
Mn338      Mn  0.99928963  0.49938615  0.11421484     1.10700
C339        C  0.49253003  0.11857190  0.13047606     1.01600
C340        C  0.88007429  0.50626359  0.13038284     1.01700
N341        N  0.93735774  0.00553462  0.39017665    -0.03600
N342        N  0.91500353  0.49279655  0.35149956    -0.59000
N343        N  0.97314445  0.08134648  0.43144433    -0.02900
N344        N  0.97174554  0.11771761  0.42173372    -0.55700
N345        N  0.49323823  0.06131351  0.39015063    -0.04300
N346        N  0.50596692  0.08364331  0.35142268    -0.58600
N347        N  0.91734422  0.02566401  0.43145246    -0.03200
N348        N  0.88095700  0.02708142  0.42177534    -0.55700
Mn349      Mn  0.49929081  0.99938909  0.38832629     1.20200
Mn350      Mn  0.94438709  0.05436588  0.00127264     1.10100
Cl351      Cl  0.49928968  0.99938585  0.00127058    -0.83700
C352        C  0.88007491  0.50626923  0.37215376     0.98600
C353        C  0.49253000  0.11857565  0.37207337     0.98400
C354        C  0.99904908  0.28319996  0.28250563     0.04500
C355        C  0.99905041  0.28319806  0.22003246     0.04500
C356        C  0.99923865  0.24939700  0.18918249    -0.16000
C357        C  0.99942956  0.21559763  0.22003647     0.04500
C358        C  0.99942843  0.21559951  0.28250904     0.04500
C359        C  0.99923623  0.24940104  0.31335931    -0.16000
H360        H  0.99923767  0.24940217  0.36146000     0.06500
H361        H  0.99924187  0.24939476  0.14108177     0.06500
C362        C  0.78308346  0.49927993  0.28250707     0.04500
C363        C  0.78308332  0.49927646  0.22003270     0.04500
C364        C  0.74929288  0.49936850  0.18918440    -0.16000
C365        C  0.71550197  0.49946455  0.22003533     0.04500
C366        C  0.71550211  0.49946829  0.28250985     0.04500
C367        C  0.74929271  0.49937558  0.31335812    -0.16000
H368        H  0.74929238  0.49937908  0.36145940     0.06500
H369        H  0.74929305  0.49936674  0.14108318     0.06600
C370        C  0.65259056  0.99679101  0.16055787    -0.11000
C371        C  0.68130150  0.49871881  0.18696993    -0.12600
C372        C  0.68130211  0.49872599  0.31557822    -0.11000
C373        C  0.65259097  0.99679946  0.34199114    -0.12600
C374        C  0.84599237  0.50195953  0.16055441    -0.11000
C375        C  0.81728230  0.50002517  0.18696492    -0.12600
C376        C  0.84599311  0.50196614  0.34198105    -0.11000
C377        C  0.81728299  0.50003121  0.31557173    -0.12600
C378        C  0.49875392  0.18137992  0.18699439    -0.11000
C379        C  0.49684708  0.15264411  0.16065253    -0.12600
C380        C  0.49875230  0.18138348  0.31555454    -0.11000
C381        C  0.49684579  0.15264836  0.34189776    -0.12600
C382        C  0.99974933  0.31740913  0.18698507    -0.11000
C383        C  0.00168222  0.34613697  0.16063856    -0.12600
C384        C  0.00167976  0.34614132  0.34189493    -0.11000
C385        C  0.99974674  0.31741282  0.31554965    -0.12600
N386        N  0.00533845  0.43746309  0.61239520    -0.03900
N387        N  0.99259820  0.41513939  0.65111974    -0.56000
N388        N  0.58123462  0.47310267  0.57108703    -0.03600
N389        N  0.61762245  0.47168115  0.58076360    -0.58100
N390        N  0.56122317  0.49323764  0.61235947    -0.03200
N391        N  0.58357969  0.00597452  0.65103432    -0.56000
N392        N  0.52542742  0.41742495  0.57110171    -0.02800
N393        N  0.52681227  0.38105516  0.58081114    -0.58500
C394        C  0.00602391  0.38020477  0.63047011     0.98300
C395        C  0.61850740  0.99249596  0.63038170     0.98100
N396        N  0.56122366  0.49324092  0.89018417    -0.04100
N397        N  0.58358072  0.00598057  0.85151293    -0.56600
N398        N  0.52542771  0.41742770  0.93143293    -0.02200
N399        N  0.52681114  0.38105816  0.92172154    -0.57800
N400        N  0.00533963  0.43746640  0.89014161    -0.04100
N401        N  0.99259873  0.41514329  0.85141654    -0.56800
N402        N  0.58123425  0.47310540  0.93145447    -0.01800
N403        N  0.61762212  0.47168625  0.92177996    -0.57900
Mn404      Mn  0.55418857  0.44440133  0.00126863     1.18400
C405        C  0.61850770  0.99250316  0.87216567     1.00400
C406        C  0.00602316  0.38020860  0.87206368     1.01000
N407        N  0.49323692  0.06131031  0.61239496    -0.04100
N408        N  0.50596603  0.08363949  0.65112376    -0.60400
N409        N  0.91734445  0.02566160  0.57108887    -0.02900
N410        N  0.88095716  0.02707749  0.58076482    -0.61100
N411        N  0.93735712  0.00553160  0.61236242    -0.03600
N412        N  0.91500222  0.49279149  0.65103674    -0.60700
N413        N  0.97314392  0.08134384  0.57110358    -0.02500
N414        N  0.97174594  0.11771474  0.58081670    -0.61400
Mn415      Mn  0.99928963  0.49938619  0.61421487     1.10700
C416        C  0.49253001  0.11857194  0.63047603     1.01600
C417        C  0.88007431  0.50626358  0.63038303     1.01700
N418        N  0.93735774  0.00553454  0.89017668    -0.03600
N419        N  0.91500342  0.49279643  0.85149958    -0.59000
N420        N  0.97314445  0.08134640  0.93144436    -0.02900
N421        N  0.97174556  0.11771754  0.92173379    -0.55700
N422        N  0.49323824  0.06131346  0.89015071    -0.04300
N423        N  0.50596699  0.08364327  0.85142278    -0.58600
N424        N  0.91734423  0.02566386  0.93145258    -0.03200
N425        N  0.88095702  0.02708130  0.92177545    -0.55700
Mn426      Mn  0.49929080  0.99938902  0.88832634     1.20200
Mn427      Mn  0.94438710  0.05436591  0.50127261     1.10100
Cl428      Cl  0.49928967  0.99938580  0.50127060    -0.83700
C429        C  0.88007486  0.50626915  0.87215385     0.98600
C430        C  0.49253005  0.11857561  0.87207348     0.98400
C431        C  0.99904912  0.28319998  0.78250565     0.04500
C432        C  0.99905043  0.28319811  0.72003248     0.04500
C433        C  0.99923866  0.24939707  0.68918261    -0.16000
C434        C  0.99942956  0.21559768  0.72003651     0.04500
C435        C  0.99942844  0.21559955  0.78250912     0.04500
C436        C  0.99923626  0.24940108  0.81335926    -0.16000
H437        H  0.99923770  0.24940224  0.86146017     0.06500
H438        H  0.99924188  0.24939487  0.64108173     0.06500
C439        C  0.78308348  0.49927979  0.78250703     0.04500
C440        C  0.78308334  0.49927638  0.72003267     0.04500
C441        C  0.74929289  0.49936853  0.68918434    -0.16000
C442        C  0.71550196  0.49946467  0.72003528     0.04500
C443        C  0.71550210  0.49946835  0.78250979     0.04500
C444        C  0.74929273  0.49937547  0.81335805    -0.16000
H445        H  0.74929236  0.49937897  0.86145927     0.06500
H446        H  0.74929308  0.49936681  0.64108308     0.06600
C447        C  0.65259054  0.99679102  0.66055796    -0.11000
C448        C  0.68130149  0.49871887  0.68696995    -0.12600
C449        C  0.68130209  0.49872610  0.81557818    -0.11000
C450        C  0.65259093  0.99679951  0.84199106    -0.12600
C451        C  0.84599242  0.50195945  0.66055455    -0.11000
C452        C  0.81728231  0.50002515  0.68696496    -0.12600
C453        C  0.84599303  0.50196621  0.84198111    -0.11000
C454        C  0.81728295  0.50003127  0.81557173    -0.12600
C455        C  0.49875393  0.18137998  0.68699441    -0.11000
C456        C  0.49684710  0.15264420  0.66065241    -0.12600
C457        C  0.49875231  0.18138353  0.81555468    -0.11000
C458        C  0.49684582  0.15264840  0.84189791    -0.12600
C459        C  0.99974933  0.31740919  0.68698515    -0.11000
C460        C  0.00168217  0.34613700  0.66063852    -0.12600
C461        C  0.00167980  0.34614130  0.84189493    -0.11000
C462        C  0.99974678  0.31741279  0.81554964    -0.12600
N463        N  0.00533846  0.93746307  0.11239518    -0.03900
N464        N  0.99259826  0.91513936  0.15111979    -0.56000
N465        N  0.58123458  0.97310268  0.07108705    -0.03600
N466        N  0.61762244  0.97168118  0.08076355    -0.58100
N467        N  0.56122318  0.99323760  0.11235953    -0.03200
N468        N  0.58357966  0.50597454  0.15103432    -0.56000
N469        N  0.52542744  0.91742493  0.07110176    -0.02800
N470        N  0.52681228  0.88105513  0.08081119    -0.58500
C471        C  0.00602400  0.88020475  0.13047019     0.98300
C472        C  0.61850739  0.49249610  0.13038159     0.98100
N473        N  0.56122359  0.99324092  0.39018404    -0.04100
N474        N  0.58358082  0.50598058  0.35151280    -0.56600
N475        N  0.52542784  0.91742766  0.43143295    -0.02200
N476        N  0.52681123  0.88105811  0.42172157    -0.57800
N477        N  0.00533970  0.93746637  0.39014172    -0.04100
N478        N  0.99259870  0.91514329  0.35141672    -0.56800
N479        N  0.58123416  0.97310538  0.43145431    -0.01800
N480        N  0.61762201  0.97168626  0.42177986    -0.57900
Mn481      Mn  0.55418861  0.94440130  0.50126863     1.18400
C482        C  0.61850778  0.49250319  0.37216566     1.00400
C483        C  0.00602311  0.88020858  0.37206384     1.01000
N484        N  0.49323695  0.56131027  0.11239490    -0.04100
N485        N  0.50596604  0.58363943  0.15112376    -0.60400
N486        N  0.91734444  0.52566166  0.07108883    -0.02900
N487        N  0.88095715  0.52707752  0.08076475    -0.61100
N488        N  0.93735711  0.50553161  0.11236232    -0.03600
N489        N  0.91500215  0.99279140  0.15103655    -0.60700
N490        N  0.97314392  0.58134383  0.07110355    -0.02500
N491        N  0.97174603  0.61771472  0.08081665    -0.61400
Mn492      Mn  0.99928966  0.99938617  0.11421482     1.10700
C493        C  0.49253009  0.61857189  0.13047601     1.01600
C494        C  0.88007426  0.00626353  0.13038280     1.01700
N495        N  0.93735775  0.50553469  0.39017662    -0.03600
N496        N  0.91500350  0.99279641  0.35149965    -0.59000
N497        N  0.97314438  0.58134643  0.43144426    -0.02900
N498        N  0.97174555  0.61771757  0.42173369    -0.55700
N499        N  0.49323813  0.56131347  0.39015060    -0.04300
N500        N  0.50596693  0.58364323  0.35142270    -0.58600
N501        N  0.91734419  0.52566401  0.43145251    -0.03200
N502        N  0.88095699  0.52708136  0.42177542    -0.55700
Mn503      Mn  0.49929074  0.49938906  0.38832630     1.20200
Mn504      Mn  0.94438702  0.55436592  0.00127263     1.10100
Cl505      Cl  0.49928971  0.49938586  0.00127056    -0.83700
C506        C  0.88007491  0.00626919  0.37215380     0.98600
C507        C  0.49253001  0.61857559  0.37207335     0.98400
C508        C  0.99904903  0.78319996  0.28250564     0.04500
C509        C  0.99905038  0.78319809  0.22003247     0.04500
C510        C  0.99923851  0.74939708  0.18918247    -0.16000
C511        C  0.99942947  0.71559769  0.22003646     0.04500
C512        C  0.99942844  0.71559953  0.28250904     0.04500
C513        C  0.99923614  0.74940106  0.31335931    -0.16000
H514        H  0.99923759  0.74940219  0.36146000     0.06500
H515        H  0.99924167  0.74939488  0.14108175     0.06500
C516        C  0.78308344  0.99927998  0.28250709     0.04500
C517        C  0.78308331  0.99927652  0.22003274     0.04500
C518        C  0.74929288  0.99936858  0.18918441    -0.16000
C519        C  0.71550195  0.99946465  0.22003531     0.04500
C520        C  0.71550208  0.99946838  0.28250985     0.04500
C521        C  0.74929268  0.99937567  0.31335812    -0.16000
H522        H  0.74929232  0.99937914  0.36145939     0.06500
H523        H  0.74929310  0.99936680  0.14108319     0.06600
C524        C  0.65259054  0.49679115  0.16055783    -0.11000
C525        C  0.68130149  0.99871883  0.18696991    -0.12600
C526        C  0.68130207  0.99872606  0.31557826    -0.11000
C527        C  0.65259102  0.49679941  0.34199110    -0.12600
C528        C  0.84599236  0.00195945  0.16055437    -0.11000
C529        C  0.81728232  0.00002511  0.18696499    -0.12600
C530        C  0.84599310  0.00196608  0.34198107    -0.11000
C531        C  0.81728298  0.00003116  0.31557176    -0.12600
C532        C  0.49875397  0.68137996  0.18699436    -0.11000
C533        C  0.49684717  0.65264414  0.16065245    -0.12600
C534        C  0.49875241  0.68138348  0.31555458    -0.11000
C535        C  0.49684589  0.65264835  0.34189779    -0.12600
C536        C  0.99974927  0.81740917  0.18698513    -0.11000
C537        C  0.00168223  0.84613698  0.16063860    -0.12600
C538        C  0.00167986  0.84614128  0.34189492    -0.11000
C539        C  0.99974684  0.81741275  0.31554968    -0.12600
N540        N  0.00533841  0.93746313  0.61239517    -0.03900
N541        N  0.99259825  0.91513941  0.65111979    -0.56000
N542        N  0.58123460  0.97310265  0.57108705    -0.03600
N543        N  0.61762246  0.97168108  0.58076367    -0.58100
N544        N  0.56122317  0.99323766  0.61235942    -0.03200
N545        N  0.58357969  0.50597451  0.65103434    -0.56000
N546        N  0.52542736  0.91742500  0.57110170    -0.02800
N547        N  0.52681226  0.88105521  0.58081116    -0.58500
C548        C  0.00602402  0.88020479  0.63047020     0.98300
C549        C  0.61850741  0.49249598  0.63038170     0.98100
N550        N  0.56122358  0.99324087  0.89018418    -0.04100
N551        N  0.58358083  0.50598050  0.85151287    -0.56600
N552        N  0.52542769  0.91742764  0.93143302    -0.02200
N553        N  0.52681114  0.88105813  0.92172152    -0.57800
N554        N  0.00533960  0.93746635  0.89014170    -0.04100
N555        N  0.99259874  0.91514328  0.85141656    -0.56800
N556        N  0.58123417  0.97310535  0.93145441    -0.01800
N557        N  0.61762203  0.97168620  0.92177985    -0.57900
Mn558      Mn  0.55418857  0.94440133  0.00126865     1.18400
C559        C  0.61850780  0.49250312  0.87216569     1.00400
C560        C  0.00602314  0.88020859  0.87206365     1.01000
N561        N  0.49323695  0.56131027  0.61239489    -0.04100
N562        N  0.50596602  0.58363937  0.65112379    -0.60400
N563        N  0.91734439  0.52566162  0.57108884    -0.02900
N564        N  0.88095713  0.52707741  0.58076479    -0.61100
N565        N  0.93735711  0.50553167  0.61236244    -0.03600
N566        N  0.91500217  0.99279137  0.65103664    -0.60700
N567        N  0.97314395  0.58134385  0.57110350    -0.02500
N568        N  0.97174607  0.61771473  0.58081669    -0.61400
Mn569      Mn  0.99928966  0.99938621  0.61421489     1.10700
C570        C  0.49253011  0.61857185  0.63047608     1.01600
C571        C  0.88007430  0.00626358  0.63038295     1.01700
N572        N  0.93735768  0.50553459  0.89017668    -0.03600
N573        N  0.91500347  0.99279648  0.85149951    -0.59000
N574        N  0.97314434  0.58134647  0.93144432    -0.02900
N575        N  0.97174556  0.61771761  0.92173377    -0.55700
N576        N  0.49323812  0.56131350  0.89015072    -0.04300
N577        N  0.50596698  0.58364326  0.85142282    -0.58600
N578        N  0.91734418  0.52566391  0.93145251    -0.03200
N579        N  0.88095694  0.52708132  0.92177544    -0.55700
Mn580      Mn  0.49929077  0.49938909  0.88832632     1.20200
Mn581      Mn  0.94438700  0.55436597  0.50127259     1.10100
Cl582      Cl  0.49928958  0.49938590  0.50127060    -0.83700
C583        C  0.88007490  0.00626921  0.87215375     0.98600
C584        C  0.49253006  0.61857560  0.87207346     0.98400
C585        C  0.99904905  0.78319996  0.78250564     0.04500
C586        C  0.99905042  0.78319803  0.72003246     0.04500
C587        C  0.99923857  0.74939696  0.68918262    -0.16000
C588        C  0.99942946  0.71559758  0.72003654     0.04500
C589        C  0.99942832  0.71559951  0.78250914     0.04500
C590        C  0.99923613  0.74940105  0.81335926    -0.16000
H591        H  0.99923765  0.74940221  0.86146017     0.06500
H592        H  0.99924176  0.74939471  0.64108173     0.06500
C593        C  0.78308349  0.99927984  0.78250706     0.04500
C594        C  0.78308337  0.99927638  0.72003271     0.04500
C595        C  0.74929295  0.99936838  0.68918435    -0.16000
C596        C  0.71550201  0.99946450  0.72003528     0.04500
C597        C  0.71550210  0.99946838  0.78250981     0.04500
C598        C  0.74929273  0.99937556  0.81335806    -0.16000
H599        H  0.74929235  0.99937908  0.86145928     0.06500
H600        H  0.74929316  0.99936661  0.64108307     0.06600
C601        C  0.65259054  0.49679104  0.66055795    -0.11000
C602        C  0.68130153  0.99871872  0.68696994    -0.12600
C603        C  0.68130205  0.99872617  0.81557824    -0.11000
C604        C  0.65259101  0.49679943  0.84199108    -0.12600
C605        C  0.84599239  0.00195956  0.66055450    -0.11000
C606        C  0.81728234  0.00002517  0.68696502    -0.12600
C607        C  0.84599307  0.00196617  0.84198110    -0.11000
C608        C  0.81728297  0.00003122  0.81557177    -0.12600
C609        C  0.49875404  0.68137982  0.68699448    -0.11000
C610        C  0.49684727  0.65264403  0.66065248    -0.12600
C611        C  0.49875238  0.68138348  0.81555472    -0.11000
C612        C  0.49684595  0.65264833  0.84189789    -0.12600
C613        C  0.99974929  0.81740914  0.68698511    -0.11000
C614        C  0.00168224  0.84613695  0.66063852    -0.12600
C615        C  0.00167986  0.84614132  0.84189481    -0.11000
C616        C  0.99974685  0.81741278  0.81554959    -0.12600
loop_ 
_geom_bond_atom_site_label_1 
_geom_bond_atom_site_label_2 
_geom_bond_distance 
_geom_bond_site_symmetry_2 
_ccdc_geom_bond_type 
N1            N2   1.321       .  A
N1          N315   1.316       .  A
N1          Mn30   2.203       .  S
N2            C9   1.351       .  A
N3            N5   1.316       .  A
N3            N4   1.320       .  A
N3          Mn96   2.199       .  S
N4          C164   1.350       .  A
N5          N160   1.321       .  A
N5         Mn338   2.203   1_455  S
N6          N159   1.321   1_545  A
N6           C10   1.351   1_545  A
N7            N8   1.320       .  A
N7          N309   1.316       .  A
N7          Mn96   2.200       .  S
N8          C317   1.350       .  A
C9          N316   1.350       .  A
C9           C75   1.434       .  S
C10         N158   1.350       .  A
C10          C62   1.434       .  S
N11          N17   1.316       .  A
N11         N166   1.321       .  A
N11        Mn195   2.203   1_455  S
N12         N165   1.321   1_545  A
N12          C20   1.351   1_545  A
N13          N14   1.320       .  A
N13         N323   1.316       .  A
N13         Mn19   2.200       .  S
N14         C329   1.350       .  A
N15          N16   1.321       .  A
N15         N321   1.316       .  A
N15        Mn503   2.203       .  S
N16          C21   1.351       .  A
N17          N18   1.320       .  A
N17         Mn19   2.199       .  S
N18         C174   1.350       .  A
Mn19         N80   2.199       .  S
Mn19         N84   2.200       .  S
Mn19       Cl274   2.547   1_455  S
C20         N172   1.350       .  A
C20          C65   1.434       .  S
C21         N322   1.350       .  A
C21          C76   1.434       .  S
N22          N23   1.321   1_655  A
N22         N336   1.316       .  A
N22        Mn492   2.203   1_545  S
N23          C31   1.351   1_455  A
N24          N26   1.316       .  A
N24          N25   1.320       .  A
N24         Mn42   2.199       .  S
N25         C186   1.350       .  A
N26         N181   1.321   1_545  A
N26        Mn184   2.203   1_545  S
N27         N180   1.321       .  A
N27          C32   1.351       .  A
N28          N29   1.320       .  A
N28         N330   1.316       .  A
N28         Mn42   2.199       .  S
N29         C339   1.350       .  A
Mn30        N313   2.203       .  S
Mn30        N484   2.203       .  S
Mn30        N180   2.203       .  S
Mn30       Cl505   2.547       .  S
C31         N337   1.350       .  A
C31          C71   1.434       .  S
C32         N179   1.350       .  A
C32          C66   1.434       .  S
N33          N39   1.316       .  A
N33         N188   1.321   1_545  A
N33        Mn349   2.203   1_545  S
N34         N187   1.321       .  A
N34          C44   1.351       .  A
N35          N36   1.320       .  A
N35         N345   1.316       .  A
N35        Mn119   2.199       .  S
N36         C353   1.350       .  A
N37          N38   1.321   1_655  A
N37         N343   1.316       .  A
N37         Mn41   2.203   1_545  S
N38          C45   1.351   1_455  A
N39          N40   1.320       .  A
N39        Mn119   2.199       .  S
N40         C198   1.350       .  A
Mn41        N165   2.203   1_655  S
Mn41        N477   2.203   1_655  S
Mn41        N341   2.203   1_565  S
Mn41       Cl120   2.547       .  S
Mn42        N112   2.199   1_554  S
Mn42        N116   2.199   1_554  S
Mn42       Cl351   2.547   1_545  S
Cl43       Mn250   2.547   1_655  S
Cl43       Mn492   2.547       .  S
Cl43       Mn118   2.547   1_554  S
Cl43       Mn350   2.547   1_565  S
C44         N194   1.350       .  A
C44          C68   1.434       .  S
C45         N344   1.350       .  A
C45          C73   1.434       .  S
C46          C77   1.444       .  S
C46          C47   1.409       .  A
C46          C51   1.401       .  A
C47          C74   1.444       .  S
C47          C48   1.401       .  A
C48          C49   1.401       .  A
C48          H53   1.085       .  S
C49         C378   1.444       .  S
C49          C50   1.409       .  A
C50         C380   1.444       .  S
C50          C51   1.401       .  A
C51          H52   1.085       .  S
C54          C69   1.443       .  S
C54          C55   1.409       .  A
C54          C59   1.401       .  A
C55          C67   1.443       .  S
C55          C56   1.401       .  A
C56          C57   1.401       .  A
C56          H61   1.085       .  S
C57          C63   1.443       .  S
C57          C58   1.409       .  A
C58          C64   1.443       .  S
C58          C59   1.401       .  A
C59          H60   1.085       .  S
C62         C217   1.205       .  T
C63         C216   1.205       .  T
C64         C219   1.205       .  T
C65         C218   1.205       .  T
C66          C67   1.205       .  T
C68          C69   1.205       .  T
C70         C357   1.444       .  S
C70          C71   1.205       .  T
C72         C358   1.444       .  S
C72          C73   1.205       .  T
C74          C75   1.205       .  T
C76          C77   1.205       .  T
N78          N79   1.321       .  A
N78         N392   1.316       .  A
N78        Mn107   2.203       .  S
N79          C86   1.351       .  A
N80          N82   1.316       .  A
N80          N81   1.320       .  A
N81         C241   1.350       .  A
N82         N237   1.321       .  A
N82        Mn415   2.203   1_455  S
N83         N236   1.321   1_545  A
N83          C87   1.351   1_545  A
N84         N386   1.316       .  A
N84          N85   1.320       .  A
N85         C394   1.350       .  A
C86         N393   1.350       .  A
C86         C152   1.434       .  S
C87         N235   1.350       .  A
C87         C139   1.434       .  S
N88          N94   1.316       .  A
N88         N243   1.321       .  A
N88        Mn272   2.203   1_455  S
N89         N242   1.321   1_545  A
N89          C97   1.351   1_545  A
N90          N91   1.320       .  A
N90         N400   1.316       .  A
N90         Mn96   2.200   1_556  S
N91         C406   1.350       .  A
N92         N398   1.316       .  A
N92          N93   1.321       .  A
N92        Mn580   2.203       .  S
N93          C98   1.351       .  A
N94          N95   1.320       .  A
N94         Mn96   2.199   1_556  S
N95         C251   1.350       .  A
Mn96       Cl197   2.547   1_455  S
C97         N249   1.350       .  A
C97         C142   1.434       .  S
C98         N399   1.350       .  A
C98         C153   1.434       .  S
N99         N100   1.321   1_655  A
N99         N413   1.316       .  A
N99        Mn569   2.203   1_545  S
N100        C108   1.351   1_455  A
N101        N103   1.316       .  A
N101        N102   1.320       .  A
N101       Mn119   2.199       .  S
N102        C263   1.350       .  A
N103        N258   1.321   1_545  A
N103       Mn261   2.203   1_545  S
N104        N257   1.321       .  A
N104        C109   1.351       .  A
N105        N407   1.316       .  A
N105        N106   1.320       .  A
N105       Mn119   2.199       .  S
N106        C416   1.350       .  A
Mn107       N390   2.203       .  S
Mn107       N561   2.203       .  S
Mn107       N257   2.203       .  S
Mn107      Cl582   2.547       .  S
C108        N414   1.350       .  A
C108        C148   1.434       .  S
C109        N256   1.350       .  A
C109        C143   1.434       .  S
N110        N265   1.321   1_545  A
N110        N116   1.316       .  A
N110       Mn426   2.203   1_545  S
N111        N264   1.321       .  A
N111        C121   1.351       .  A
N112        N113   1.320       .  A
N112        N422   1.316       .  A
N113        C430   1.350       .  A
N114        N420   1.316       .  A
N114        N115   1.321   1_655  A
N114       Mn118   2.203   1_545  S
N115        C122   1.351   1_455  A
N116        N117   1.320       .  A
N117        C275   1.350       .  A
Mn118       N242   2.203   1_655  S
Mn118       N554   2.203   1_655  S
Mn118       N418   2.203   1_565  S
Mn119      Cl428   2.547   1_545  S
Cl120      Mn173   2.547   1_655  S
Cl120      Mn569   2.547       .  S
Cl120      Mn427   2.547   1_565  S
C121        N271   1.350       .  A
C121        C145   1.434       .  S
C122        N421   1.350       .  A
C122        C150   1.434       .  S
C123        C154   1.444       .  S
C123        C124   1.409       .  A
C123        C128   1.401       .  A
C124        C151   1.444       .  S
C124        C125   1.401       .  A
C125        C126   1.401       .  A
C125        H130   1.085       .  S
C126        C455   1.444       .  S
C126        C127   1.409       .  A
C127        C457   1.444       .  S
C127        C128   1.401       .  A
C128        H129   1.085       .  S
C131        C146   1.443       .  S
C131        C132   1.409       .  A
C131        C136   1.401       .  A
C132        C144   1.443       .  S
C132        C133   1.401       .  A
C133        C134   1.401       .  A
C133        H138   1.085       .  S
C134        C140   1.443       .  S
C134        C135   1.409       .  A
C135        C141   1.443       .  S
C135        C136   1.401       .  A
C136        H137   1.085       .  S
C139        C294   1.205       .  T
C140        C293   1.205       .  T
C141        C296   1.205       .  T
C142        C295   1.205       .  T
C143        C144   1.205       .  T
C145        C146   1.205       .  T
C147        C434   1.444       .  S
C147        C148   1.205       .  T
C149        C435   1.444       .  S
C149        C150   1.205       .  T
C151        C152   1.205       .  T
C153        C154   1.205       .  T
N155        N156   1.321       .  A
N155        N469   1.316       .  A
N155       Mn184   2.203       .  S
N156        C163   1.351       .  A
N157        N159   1.316       .  A
N157        N158   1.320       .  A
N157       Mn250   2.199       .  S
N159       Mn492   2.203   1_455  S
N160        C164   1.351       .  A
N161        N463   1.316       .  A
N161        N162   1.320       .  A
N161       Mn250   2.200       .  S
N162        C471   1.350       .  A
C163        N470   1.350       .  A
C163        C229   1.434       .  S
C164        C216   1.434       .  S
N165        N171   1.316       .  A
N166        C174   1.351       .  A
N167        N168   1.320       .  A
N167        N477   1.316       .  A
N167       Mn173   2.200       .  S
N168        C483   1.350       .  A
N169        N475   1.316       .  A
N169        N170   1.321       .  A
N169       Mn349   2.203       .  S
N170        C175   1.351       .  A
N171        N172   1.320       .  A
N171       Mn173   2.199       .  S
Mn173       N234   2.199       .  S
Mn173       N238   2.200       .  S
C174        C219   1.434       .  S
C175        N476   1.350       .  A
C175        C230   1.434       .  S
N176        N177   1.321   1_655  A
N176        N490   1.316       .  A
N176       Mn338   2.203       .  S
N177        C185   1.351   1_455  A
N178        N180   1.316       .  A
N178        N179   1.320       .  A
N178       Mn196   2.199       .  S
N181        C186   1.351   1_565  A
N182        N484   1.316       .  A
N182        N183   1.320       .  A
N182       Mn196   2.199       .  S
N183        C493   1.350       .  A
Mn184       N467   2.203       .  S
Mn184       N330   2.203   1_565  S
Mn184      Cl351   2.547       .  S
C185        N491   1.350       .  A
C185        C225   1.434       .  S
C186        C220   1.434       .  S
N187        N193   1.316       .  A
N187       Mn503   2.203       .  S
N188        C198   1.351   1_565  A
N189        N190   1.320       .  A
N189        N499   1.316       .  A
N189       Mn273   2.199       .  S
N190        C507   1.350       .  A
N191        N497   1.316       .  A
N191        N192   1.321   1_655  A
N191       Mn195   2.203       .  S
N192        C199   1.351   1_455  A
N193        N194   1.320       .  A
N193       Mn273   2.199       .  S
Mn195       N323   2.203   1_655  S
Mn195       N495   2.203       .  S
Mn195      Cl274   2.547       .  S
Mn196       N266   2.199   1_554  S
Mn196       N270   2.199   1_554  S
Mn196      Cl505   2.547       .  S
Cl197      Mn338   2.547       .  S
Cl197      Mn272   2.547   1_554  S
Cl197      Mn504   2.547       .  S
C198        C222   1.434       .  S
C199        N498   1.350       .  A
C199        C227   1.434       .  S
C200        C231   1.444       .  S
C200        C201   1.409       .  A
C200        C205   1.401       .  A
C201        C228   1.444       .  S
C201        C202   1.401       .  A
C202        C203   1.401       .  A
C202        H207   1.085       .  S
C203        C532   1.444       .  S
C203        C204   1.409       .  A
C204        C534   1.444       .  S
C204        C205   1.401       .  A
C205        H206   1.085       .  S
C208        C223   1.443   1_565  S
C208        C209   1.409       .  A
C208        C213   1.401       .  A
C209        C221   1.443   1_565  S
C209        C210   1.401       .  A
C210        C211   1.401       .  A
C210        H215   1.085       .  S
C211        C217   1.443       .  S
C211        C212   1.409       .  A
C212        C218   1.443       .  S
C212        C213   1.401       .  A
C213        H214   1.085       .  S
C220        C221   1.205       .  T
C222        C223   1.205       .  T
C224        C511   1.444       .  S
C224        C225   1.205       .  T
C226        C512   1.444       .  S
C226        C227   1.205       .  T
C228        C229   1.205       .  T
C230        C231   1.205       .  T
N232        N233   1.321       .  A
N232        N546   1.316       .  A
N232       Mn261   2.203       .  S
N233        C240   1.351       .  A
N234        N236   1.316       .  A
N234        N235   1.320       .  A
N236       Mn569   2.203   1_455  S
N237        C241   1.351       .  A
N238        N540   1.316       .  A
N238        N239   1.320       .  A
N239        C548   1.350       .  A
C240        N547   1.350       .  A
C240        C306   1.434       .  S
C241        C293   1.434       .  S
N242        N248   1.316       .  A
N243        C251   1.351       .  A
N244        N245   1.320       .  A
N244        N554   1.316       .  A
N244       Mn250   2.200   1_556  S
N245        C560   1.350       .  A
N246        N552   1.316       .  A
N246        N247   1.321       .  A
N246       Mn426   2.203       .  S
N247        C252   1.351       .  A
N248        N249   1.320       .  A
N248       Mn250   2.199   1_556  S
C251        C296   1.434       .  S
C252        N553   1.350       .  A
C252        C307   1.434       .  S
N253        N254   1.321   1_655  A
N253        N567   1.316       .  A
N253       Mn415   2.203       .  S
N254        C262   1.351   1_455  A
N255        N257   1.316       .  A
N255        N256   1.320       .  A
N255       Mn273   2.199       .  S
N258        C263   1.351   1_565  A
N259        N561   1.316       .  A
N259        N260   1.320       .  A
N259       Mn273   2.199       .  S
N260        C570   1.350       .  A
Mn261       N544   2.203       .  S
Mn261       N407   2.203   1_565  S
Mn261      Cl428   2.547       .  S
C262        N568   1.350       .  A
C262        C302   1.434       .  S
C263        C297   1.434       .  S
N264        N270   1.316       .  A
N264       Mn580   2.203       .  S
N265        C275   1.351   1_565  A
N266        N267   1.320       .  A
N266        N576   1.316       .  A
N267        C584   1.350       .  A
N268        N574   1.316       .  A
N268        N269   1.321   1_655  A
N268       Mn272   2.203       .  S
N269        C276   1.351   1_455  A
N270        N271   1.320       .  A
Mn272       N400   2.203   1_655  S
Mn272       N572   2.203       .  S
Mn273      Cl582   2.547       .  S
Cl274      Mn415   2.547       .  S
Cl274      Mn581   2.547       .  S
C275        C299   1.434       .  S
C276        N575   1.350       .  A
C276        C304   1.434       .  S
C277        C308   1.444       .  S
C277        C278   1.409       .  A
C277        C282   1.401       .  A
C278        C305   1.444       .  S
C278        C279   1.401       .  A
C279        C280   1.401       .  A
C279        H284   1.085       .  S
C280        C609   1.444       .  S
C280        C281   1.409       .  A
C281        C611   1.444       .  S
C281        C282   1.401       .  A
C282        H283   1.085       .  S
C285        C300   1.443   1_565  S
C285        C286   1.409       .  A
C285        C290   1.401       .  A
C286        C298   1.443   1_565  S
C286        C287   1.401       .  A
C287        C288   1.401       .  A
C287        H292   1.085       .  S
C288        C294   1.443       .  S
C288        C289   1.409       .  A
C289        C295   1.443       .  S
C289        C290   1.401       .  A
C290        H291   1.085       .  S
C297        C298   1.205       .  T
C299        C300   1.205       .  T
C301        C588   1.444       .  S
C301        C302   1.205       .  T
C303        C589   1.444       .  S
C303        C304   1.205       .  T
C305        C306   1.205       .  T
C307        C308   1.205       .  T
N309        N310   1.321   1_455  A
N309       Mn338   2.203   1_455  S
N310        C317   1.351   1_655  A
N311        N313   1.316       .  A
N311        N312   1.320       .  A
N311       Mn404   2.199       .  S
N312        C472   1.350       .  A
N313        N468   1.321       .  A
N314        N467   1.321   1_545  A
N314        C318   1.351   1_545  A
N315        N316   1.320       .  A
N315       Mn404   2.200       .  S
C317        C383   1.434       .  S
C318        N466   1.350       .  A
C318        C370   1.434       .  S
N319        N325   1.316       .  A
N319        N474   1.321       .  A
N319       Mn503   2.203       .  S
N320        N473   1.321   1_545  A
N320        C328   1.351   1_545  A
N321        N322   1.320       .  A
N321       Mn327   2.200       .  S
N323        N324   1.321   1_455  A
N324        C329   1.351   1_655  A
N325        N326   1.320       .  A
N325       Mn327   2.199       .  S
N326        C482   1.350       .  A
Mn327       N388   2.199       .  S
Mn327       N392   2.200       .  S
Mn327      Cl582   2.547       .  S
C328        N480   1.350       .  A
C328        C373   1.434       .  S
C329        C384   1.434       .  S
N330        N331   1.321       .  A
N331        C339   1.351       .  A
N332        N334   1.316       .  A
N332        N333   1.320       .  A
N332       Mn350   2.199       .  S
N333        C494   1.350       .  A
N334        N489   1.321   1_545  A
N334       Mn492   2.203   1_545  S
N335        N488   1.321       .  A
N335        C340   1.351       .  A
N336        N337   1.320       .  A
N336       Mn350   2.199       .  S
Mn338       N488   2.203       .  S
C339        C379   1.434       .  S
C340        N487   1.350       .  A
C340        C374   1.434       .  S
N341        N496   1.321   1_545  A
N341        N347   1.316       .  A
N342        N495   1.321       .  A
N342        C352   1.351       .  A
N343        N344   1.320       .  A
N343       Mn427   2.199       .  S
N345        N346   1.321       .  A
N345       Mn349   2.203   1_545  S
N346        C353   1.351       .  A
N347        N348   1.320       .  A
N347       Mn427   2.199       .  S
N348        C506   1.350       .  A
Mn349       N473   2.203       .  S
Mn349      Cl428   2.547       .  S
Mn350       N420   2.199   1_554  S
Mn350       N424   2.199   1_554  S
Cl351      Mn558   2.547       .  S
Cl351      Mn426   2.547   1_554  S
C352        N502   1.350       .  A
C352        C376   1.434       .  S
C353        C381   1.434       .  S
C354        C385   1.444       .  S
C354        C355   1.409       .  A
C354        C359   1.401       .  A
C355        C382   1.444       .  S
C355        C356   1.401       .  A
C356        C357   1.401       .  A
C356        H361   1.085       .  S
C357        C358   1.409       .  A
C358        C359   1.401       .  A
C359        H360   1.085       .  S
C362        C377   1.443       .  S
C362        C363   1.409       .  A
C362        C367   1.401       .  A
C363        C375   1.443       .  S
C363        C364   1.401       .  A
C364        C365   1.401       .  A
C364        H369   1.085       .  S
C365        C371   1.443       .  S
C365        C366   1.409       .  A
C366        C372   1.443       .  S
C366        C367   1.401       .  A
C367        H368   1.085       .  S
C370        C525   1.205       .  T
C371        C524   1.205       .  T
C372        C527   1.205       .  T
C373        C526   1.205       .  T
C374        C375   1.205       .  T
C376        C377   1.205       .  T
C378        C379   1.205       .  T
C380        C381   1.205       .  T
C382        C383   1.205   1_655  T
C384        C385   1.205   1_455  T
N386        N387   1.321   1_455  A
N386       Mn415   2.203   1_455  S
N387        C394   1.351   1_655  A
N388        N390   1.316       .  A
N388        N389   1.320       .  A
N389        C549   1.350       .  A
N390        N545   1.321       .  A
N391        N544   1.321   1_545  A
N391        C395   1.351   1_545  A
N392        N393   1.320       .  A
C394        C460   1.434       .  S
C395        N543   1.350       .  A
C395        C447   1.434       .  S
N396        N402   1.316       .  A
N396        N551   1.321       .  A
N396       Mn580   2.203       .  S
N397        N550   1.321   1_545  A
N397        C405   1.351   1_545  A
N398        N399   1.320       .  A
N398       Mn404   2.200   1_556  S
N400        N401   1.321   1_455  A
N401        C406   1.351   1_655  A
N402        N403   1.320       .  A
N402       Mn404   2.199   1_556  S
N403        C559   1.350       .  A
Mn404      Cl505   2.547       .  S
C405        N557   1.350       .  A
C405        C450   1.434       .  S
C406        C461   1.434       .  S
N407        N408   1.321       .  A
N408        C416   1.351       .  A
N409        N411   1.316       .  A
N409        N410   1.320       .  A
N409       Mn427   2.199       .  S
N410        C571   1.350       .  A
N411        N566   1.321   1_545  A
N411       Mn569   2.203   1_545  S
N412        N565   1.321       .  A
N412        C417   1.351       .  A
N413        N414   1.320       .  A
N413       Mn427   2.199       .  S
Mn415       N565   2.203       .  S
C416        C456   1.434       .  S
C417        N564   1.350       .  A
C417        C451   1.434       .  S
N418        N573   1.321   1_545  A
N418        N424   1.316       .  A
N419        N572   1.321       .  A
N419        C429   1.351       .  A
N420        N421   1.320       .  A
N422        N423   1.321       .  A
N422       Mn426   2.203   1_545  S
N423        C430   1.351       .  A
N424        N425   1.320       .  A
N425        C583   1.350       .  A
Mn426       N550   2.203       .  S
Cl428      Mn481   2.547       .  S
C429        N579   1.350       .  A
C429        C453   1.434       .  S
C430        C458   1.434       .  S
C431        C462   1.444       .  S
C431        C432   1.409       .  A
C431        C436   1.401       .  A
C432        C459   1.444       .  S
C432        C433   1.401       .  A
C433        C434   1.401       .  A
C433        H438   1.085       .  S
C434        C435   1.409       .  A
C435        C436   1.401       .  A
C436        H437   1.085       .  S
C439        C454   1.443       .  S
C439        C440   1.409       .  A
C439        C444   1.401       .  A
C440        C452   1.443       .  S
C440        C441   1.401       .  A
C441        C442   1.401       .  A
C441        H446   1.085       .  S
C442        C448   1.443       .  S
C442        C443   1.409       .  A
C443        C449   1.443       .  S
C443        C444   1.401       .  A
C444        H445   1.085       .  S
C447        C602   1.205       .  T
C448        C601   1.205       .  T
C449        C604   1.205       .  T
C450        C603   1.205       .  T
C451        C452   1.205       .  T
C453        C454   1.205       .  T
C455        C456   1.205       .  T
C457        C458   1.205       .  T
C459        C460   1.205   1_655  T
C461        C462   1.205   1_455  T
N463        N464   1.321   1_455  A
N463       Mn492   2.203   1_455  S
N464        C471   1.351   1_655  A
N465        N467   1.316       .  A
N465        N466   1.320       .  A
N465       Mn558   2.199       .  S
N468        C472   1.351       .  A
N469        N470   1.320       .  A
N469       Mn558   2.200       .  S
C471        C537   1.434       .  S
C472        C524   1.434       .  S
N473        N479   1.316       .  A
N474        C482   1.351       .  A
N475        N476   1.320       .  A
N475       Mn481   2.200       .  S
N477        N478   1.321   1_455  A
N478        C483   1.351   1_655  A
N479        N480   1.320       .  A
N479       Mn481   2.199       .  S
Mn481       N542   2.199       .  S
Mn481       N546   2.200       .  S
C482        C527   1.434       .  S
C483        C538   1.434       .  S
N484        N485   1.321       .  A
N485        C493   1.351       .  A
N486        N488   1.316       .  A
N486        N487   1.320       .  A
N486       Mn504   2.199       .  S
N489        C494   1.351   1_565  A
N490        N491   1.320       .  A
N490       Mn504   2.199       .  S
C493        C533   1.434       .  S
C494        C528   1.434       .  S
N495        N501   1.316       .  A
N496        C506   1.351   1_565  A
N497        N498   1.320       .  A
N497       Mn581   2.199       .  S
N499        N500   1.321       .  A
N499       Mn503   2.203       .  S
N500        C507   1.351       .  A
N501        N502   1.320       .  A
N501       Mn581   2.199       .  S
Mn503      Cl582   2.547       .  S
Mn504       N574   2.199   1_554  S
Mn504       N578   2.199   1_554  S
Cl505      Mn580   2.547   1_554  S
C506        C530   1.434       .  S
C507        C535   1.434       .  S
C508        C539   1.444       .  S
C508        C509   1.409       .  A
C508        C513   1.401       .  A
C509        C536   1.444       .  S
C509        C510   1.401       .  A
C510        C511   1.401       .  A
C510        H515   1.085       .  S
C511        C512   1.409       .  A
C512        C513   1.401       .  A
C513        H514   1.085       .  S
C516        C531   1.443   1_565  S
C516        C517   1.409       .  A
C516        C521   1.401       .  A
C517        C529   1.443   1_565  S
C517        C518   1.401       .  A
C518        C519   1.401       .  A
C518        H523   1.085       .  S
C519        C525   1.443       .  S
C519        C520   1.409       .  A
C520        C526   1.443       .  S
C520        C521   1.401       .  A
C521        H522   1.085       .  S
C528        C529   1.205       .  T
C530        C531   1.205       .  T
C532        C533   1.205       .  T
C534        C535   1.205       .  T
C536        C537   1.205   1_655  T
C538        C539   1.205   1_455  T
N540        N541   1.321   1_455  A
N540       Mn569   2.203   1_455  S
N541        C548   1.351   1_655  A
N542        N544   1.316       .  A
N542        N543   1.320       .  A
N545        C549   1.351       .  A
N546        N547   1.320       .  A
C548        C614   1.434       .  S
C549        C601   1.434       .  S
N550        N556   1.316       .  A
N551        C559   1.351       .  A
N552        N553   1.320       .  A
N552       Mn558   2.200   1_556  S
N554        N555   1.321   1_455  A
N555        C560   1.351   1_655  A
N556        N557   1.320       .  A
N556       Mn558   2.199   1_556  S
C559        C604   1.434       .  S
C560        C615   1.434       .  S
N561        N562   1.321       .  A
N562        C570   1.351       .  A
N563        N565   1.316       .  A
N563        N564   1.320       .  A
N563       Mn581   2.199       .  S
N566        C571   1.351   1_565  A
N567        N568   1.320       .  A
N567       Mn581   2.199       .  S
C570        C610   1.434       .  S
C571        C605   1.434       .  S
N572        N578   1.316       .  A
N573        C583   1.351   1_565  A
N574        N575   1.320       .  A
N576        N577   1.321       .  A
N576       Mn580   2.203       .  S
N577        C584   1.351       .  A
N578        N579   1.320       .  A
C583        C607   1.434       .  S
C584        C612   1.434       .  S
C585        C616   1.444       .  S
C585        C586   1.409       .  A
C585        C590   1.401       .  A
C586        C613   1.444       .  S
C586        C587   1.401       .  A
C587        C588   1.401       .  A
C587        H592   1.085       .  S
C588        C589   1.409       .  A
C589        C590   1.401       .  A
C590        H591   1.085       .  S
C593        C608   1.443   1_565  S
C593        C594   1.409       .  A
C593        C598   1.401       .  A
C594        C606   1.443   1_565  S
C594        C595   1.401       .  A
C595        C596   1.401       .  A
C595        H600   1.085       .  S
C596        C602   1.443       .  S
C596        C597   1.409       .  A
C597        C603   1.443       .  S
C597        C598   1.401       .  A
C598        H599   1.085       .  S
C605        C606   1.205       .  T
C607        C608   1.205       .  T
C609        C610   1.205       .  T
C611        C612   1.205       .  T
C613        C614   1.205   1_655  T
C615        C616   1.205   1_455  T
