geometry optimzed in LAMMPS
_audit_creation_date              2020-11-30 
_audit_creation_method            'lammps2cif' 
_symmetry_space_group_name_H-M    'P1' 
_symmetry_Int_Tables_number       1 
_symmetry_cell_setting            triclinic 
loop_ 
_symmetry_equiv_pos_as_xyz 
  x,y,z 
_cell_length_a                    43.907635099208015 
_cell_length_b                    20.745711751542995 
_cell_length_c                    37.316565048755464 
_cell_angle_alpha                 85.03935489042395 
_cell_angle_beta                  82.89690650447457 
_cell_angle_gamma                 79.14414101659824 
loop_ 
_atom_site_label 
_atom_site_type_symbol 
_atom_site_fract_x 
_atom_site_fract_y 
_atom_site_fract_z 
_atom_site_charge 
O1          O  0.27319961  0.58562256  0.22995630    -0.79860
O2          O  0.26898032  0.87934392  0.24513945    -0.64550
O3          O  0.26351213  0.69961261  0.25862905    -1.11150
C4          C  0.18139401  0.76463924  0.18115720     1.07030
O5          O  0.21783218  0.90803834  0.25323851    -0.77760
O6          O  0.17559749  0.82900438  0.25059323    -0.65340
Ni7        Ni  0.29841436  0.63083916  0.25261488     1.34870
C8          C  0.17798365  0.77663721  0.27096764     0.85760
O9          O  0.29811398  0.77838510  0.28453778    -0.78300
O10         O  0.32373492  0.67426988  0.27696157    -0.88570
C11         C  0.24481640  0.91522369  0.25984027     0.85340
O12         O  0.31618235  0.66581279  0.20714121    -0.66770
O13         O  0.18801677  0.82262309  0.17923245    -0.86060
C14         C  0.32033781  0.72463038  0.19840079     0.86170
C15         C  0.32088859  0.73114195  0.28886608     1.07740
H16         H  0.25019795  0.79161742  0.19175201     0.39540
O17         O  0.23913419  0.79170658  0.21577176    -1.08720
O18         O  0.20198176  0.73209387  0.26921540    -0.65370
Ni19       Ni  0.23040048  0.70571083  0.22828022     1.26350
O20         O  0.30321795  0.77449321  0.21288126    -0.65600
O21         O  0.19613610  0.71588091  0.19921497    -0.77890
C22         C  0.24805537  0.57632268  0.24873091     0.85550
O23         O  0.22379638  0.61818010  0.24356315    -0.65070
Ni24       Ni  0.20469383  0.86343792  0.21543251     1.27450
Ni25       Ni  0.26844333  0.78765380  0.25045550     1.26060
H26         H  0.25500797  0.69413078  0.28363725     0.40090
O27         O  0.02077694  0.08669060  0.23016611    -0.79860
O28         O  0.01920671  0.37916729  0.24528223    -0.64550
O29         O  0.01242507  0.20022412  0.25904127    -1.11150
C30         C  0.42981377  0.26712189  0.18237728     1.07030
O31         O  0.46811894  0.41028795  0.25268979    -0.77760
O32         O  0.42520491  0.33300270  0.25119493    -0.65340
Ni33       Ni  0.04687739  0.13061405  0.25228949     1.34870
C34         C  0.42734726  0.28136499  0.27214003     0.85760
O35         O  0.04796523  0.27717252  0.28441809    -0.78300
O36         O  0.07303308  0.17286425  0.27612611    -0.88570
C37         C  0.99520680  0.41607424  0.25959882     0.85340
O38         O  0.06434176  0.16527141  0.20654433    -0.66770
O39         O  0.43704607  0.32461662  0.17982601    -0.86060
C40         C  0.06900119  0.22379698  0.19796494     0.86170
C41         C  0.07064491  0.22946488  0.28821915     1.07740
H42         H  0.49932664  0.29176335  0.19213608     0.39540
O43         O  0.48832643  0.29272370  0.21621033    -1.08720
O44         O  0.45096287  0.23578726  0.27043920    -0.65370
Ni45       Ni  0.47883464  0.20747876  0.22934010     1.26350
O46         O  0.05245008  0.27380021  0.21285666    -0.65600
O47         O  0.44420896  0.21846645  0.20080303    -0.77890
C48         C  0.49583824  0.07798263  0.24959473     0.85550
O49         O  0.47164070  0.12057522  0.24523735    -0.65070
Ni50       Ni  0.45440098  0.36550373  0.21544715     1.27450
Ni51       Ni  0.01796015  0.28777099  0.25067038     1.26060
H52         H  0.00418912  0.19484311  0.28415050     0.40090
O53         O  0.03159313  0.58671250  0.04969193    -0.79860
O54         O  0.02805009  0.87647452  0.05713532    -0.64550
O55         O  0.01139846  0.70429427  0.08614791    -1.11150
C56         C  0.42910048  0.76749277  0.34737748     1.07030
O57         O  0.47889743  0.91029803  0.07215138    -0.77760
O58         O  0.43521165  0.83188437  0.09559145    -0.65340
Ni59       Ni  0.04531314  0.63151033  0.08692246     1.34870
C60         C  0.43065979  0.77332208  0.10429502     0.85760
O61         O  0.05549149  0.77858170  0.10157232    -0.78300
O62         O  0.06266217  0.67241187  0.12253485    -0.88570
C63         C  0.00385067  0.91906300  0.05277261     0.85340
O64         O  0.07450661  0.66398469  0.05116079    -0.66770
O65         O  0.42675167  0.82419777  0.35932396    -0.86060
C66         C  0.07238534  0.71562842  0.36354970     0.86170
C67         C  0.06989144  0.72990655  0.11998245     1.07740
H68         H  0.49556206  0.80205010  0.35152444     0.39540
O69         O  0.48730099  0.79674352  0.04329292    -1.08720
O70         O  0.44729017  0.72324433  0.08955246    -0.65370
Ni71       Ni  0.48175454  0.70920520  0.05170967     1.26350
O72         O  0.04879298  0.76126573  0.03193736    -0.65600
O73         O  0.45173223  0.71973869  0.35131682    -0.77890
C74         C  0.50450309  0.58090881  0.04280284     0.85550
O75         O  0.48050659  0.61780826  0.05713416    -0.65070
Ni76       Ni  0.45285331  0.86641598  0.04991386     1.27450
Ni77       Ni  0.02087803  0.78954646  0.07301777     1.26060
H78         H  0.00040218  0.70526022  0.11022840     0.40090
O79         O  0.28195489  0.08854462  0.04903553    -0.79860
O80         O  0.27605802  0.37838876  0.05851804    -0.64550
O81         O  0.26064677  0.20495870  0.08644246    -1.11150
C82         C  0.17889599  0.26548139  0.34673558     1.07030
O83         O  0.22667078  0.41106801  0.07217407    -0.77760
O84         O  0.18378845  0.33077517  0.09521560    -0.65340
Ni85       Ni  0.29508581  0.13320964  0.08682557     1.34870
C86         C  0.17951326  0.27200738  0.10386148     0.85760
O87         O  0.30368125  0.28077046  0.10293508    -0.78300
O88         O  0.31176364  0.17408594  0.12300766    -0.88570
C89         C  0.25180830  0.42027158  0.05334956     0.85340
O90         O  0.32420292  0.16757122  0.05166225    -0.66770
O91         O  0.17601602  0.32227221  0.35875584    -0.86060
C92         C  0.32180550  0.21987955  0.36457734     0.86170
C93         C  0.31840103  0.23206376  0.12104777     1.07740
H94         H  0.24477741  0.30253485  0.35186534     0.39540
O95         O  0.23629394  0.29702913  0.04354937    -1.08720
O96         O  0.19654919  0.22217914  0.08925916    -0.65370
Ni97       Ni  0.23135780  0.20899664  0.05173111     1.26350
O98         O  0.29779379  0.26438523  0.03294708    -0.65600
O99         O  0.20171273  0.21828020  0.35095264    -0.77890
C100        C  0.25497277  0.08138935  0.04240662     0.85550
O101        O  0.23080676  0.11731634  0.05706835    -0.65070
Ni102      Ni  0.20139534  0.36577125  0.04965483     1.27450
Ni103      Ni  0.26941268  0.29091697  0.07387742     1.26060
H104        H  0.24957172  0.20510301  0.11045192     0.40090
C105        C  0.35676838  0.20229802  0.16775751     0.24630
C106        C  0.34600422  0.24277275  0.13803821    -0.23480
C107        C  0.36369139  0.29039374  0.12226019     0.19530
C108        C  0.39119215  0.29745725  0.13593191     0.24570
C109        C  0.40199166  0.25690194  0.16561836    -0.23430
C110        C  0.38425076  0.20939347  0.18145183     0.19470
F111        F  0.39285135  0.17093979  0.21115351    -0.13380
F112        F  0.34041648  0.15637680  0.18408226    -0.15750
F113        F  0.40755227  0.34333206  0.11956646    -0.15750
F114        F  0.35506891  0.32883400  0.09256253    -0.13380
C115        C  0.09644969  0.29374656  0.15066224     0.24630
C116        C  0.09654037  0.23429529  0.17194591    -0.23480
C117        C  0.12470774  0.18842905  0.17183760     0.19530
C118        C  0.15195869  0.20154885  0.15087757     0.24570
C119        C  0.15188026  0.26106717  0.12963942    -0.23430
C120        C  0.12368751  0.30686572  0.12970402     0.19470
F121        F  0.12206530  0.36348011  0.10827981    -0.13380
F122        F  0.06978988  0.33900444  0.14969669    -0.15750
F123        F  0.17862342  0.15631807  0.15187815    -0.15750
F124        F  0.12630424  0.13185588  0.19329444    -0.13380
C125        C  0.40437138  0.23329695  0.99676515     0.24630
C126        C  0.40029916  0.27060328  0.29728782    -0.23480
C127        C  0.37027305  0.28958837  0.28615950     0.19530
C128        C  0.34470184  0.27080175  0.30740661     0.24570
C129        C  0.34883634  0.23261321  0.33995340    -0.23430
C130        C  0.37881641  0.21424821  0.01794069     0.19470
F131        F  0.38323709  0.18018693  0.05020669    -0.13380
F132        F  0.43305778  0.21586333  0.00846675    -0.15750
F133        F  0.31596532  0.28908299  0.29591042    -0.15750
F134        F  0.36582016  0.32372401  0.25391936    -0.13380
C135        C  0.13657892  0.20371979  0.01196259     0.24630
C136        C  0.15280092  0.25318772  0.32974872    -0.23480
C137        C  0.14104799  0.29677114  0.30185007     0.19530
C138        C  0.11337244  0.29033313  0.28917953     0.24570
C139        C  0.09710811  0.24097214  0.30479433    -0.23430
C140        C  0.10890312  0.19726899  0.99928550     0.19470
F141        F  0.09337262  0.14911814  0.01438238    -0.13380
F142        F  0.14666065  0.16415734  0.04064930    -0.15750
F143        F  0.10320600  0.33012717  0.26060207    -0.15750
F144        F  0.15651668  0.34507634  0.28684024    -0.13380
C145        C  0.47306922  0.04523834  0.31273844     0.24630
C146        C  0.49706847  0.03466900  0.28376611    -0.23480
C147        C  0.02382400  0.98731315  0.28944561     0.19530
C148        C  0.02665216  0.95191919  0.32299998     0.24570
C149        C  0.00264334  0.96245304  0.01862908    -0.23430
C150        C  0.47589491  0.00983339  0.01295682     0.19470
F151        F  0.45231271  0.02230757  0.04001297    -0.13380
F152        F  0.44690857  0.09089153  0.97575419    -0.15750
F153        F  0.05282221  0.90629978  0.32666063    -0.15750
F154        F  0.04740971  0.97484474  0.26239324    -0.13380
C155        C  0.02599359  0.45429642  0.30436296     0.24630
C156        C  0.49809978  0.46065253  0.28814177    -0.23480
C157        C  0.47201496  0.50571990  0.30212702     0.19530
C158        C  0.47371197  0.54269006  0.33137243     0.24570
C159        C  0.50160724  0.53633103  0.01426054    -0.23430
C160        C  0.02769323  0.49127016  0.00027094     0.19470
F161        F  0.05509296  0.48236607  0.01496253    -0.13380
F162        F  0.05176539  0.41131049  0.29250191    -0.15750
F163        F  0.44794176  0.58567520  0.34323345    -0.15750
F164        F  0.44461733  0.51463196  0.28743040    -0.13380
C165        C  0.37460061  0.80730105  0.12930098     0.24630
C166        C  0.40312706  0.76285259  0.13027531    -0.23480
C167        C  0.40367768  0.70456155  0.15265975     0.19530
C168        C  0.37650952  0.69122438  0.17368740     0.24570
C169        C  0.34795936  0.73559691  0.17266872    -0.23430
C170        C  0.34741923  0.79396202  0.15033090     0.19470
F171        F  0.32037910  0.83771269  0.14831072    -0.13380
F172        F  0.37263247  0.86251585  0.10671062    -0.15750
F173        F  0.37850214  0.63596497  0.19624450    -0.15750
F174        F  0.43071175  0.66077308  0.15464119    -0.13380
C175        C  0.14311175  0.79423441  0.13436200     0.24630
C176        C  0.15376672  0.75400026  0.16421050    -0.23480
C177        C  0.13594695  0.70673774  0.18016300     0.19530
C178        C  0.10841752  0.69977206  0.16652700     0.24570
C179        C  0.09772999  0.74007796  0.13670610    -0.23430
C180        C  0.11560146  0.78723363  0.12070147     0.19470
F181        F  0.10710219  0.82539335  0.09086546    -0.13380
F182        F  0.15960295  0.83979892  0.11787937    -0.15750
F183        F  0.09191654  0.65426127  0.18305541    -0.15750
F184        F  0.14446843  0.66859316  0.20999557    -0.13380
C185        C  0.36316940  0.79301792  0.29029435     0.24630
C186        C  0.34698120  0.74349179  0.30584269    -0.23600
C187        C  0.35874932  0.69996553  0.33375450     0.19530
C188        C  0.38640390  0.70651581  0.34643594     0.24570
C189        C  0.40264120  0.75591836  0.33081196    -0.23430
C190        C  0.39082736  0.79957352  0.30297675     0.19470
F191        F  0.40632309  0.84777403  0.28787245    -0.13380
F192        F  0.35307778  0.83252870  0.26159501    -0.15750
F193        F  0.39657040  0.66679579  0.37503841    -0.15750
F194        F  0.34331356  0.65161409  0.34877210    -0.13380
C195        C  0.15508441  0.72548867  0.99475407     0.24630
C196        C  0.15095098  0.76393286  0.29561463    -0.23480
C197        C  0.12094388  0.78269888  0.28440378     0.19530
C198        C  0.09536639  0.76381124  0.30561275     0.24570
C199        C  0.09943554  0.72627981  0.33835859    -0.23430
C200        C  0.12948968  0.70687267  0.01603860     0.19470
F201        F  0.13395831  0.67247265  0.04820323    -0.13380
F202        F  0.18384204  0.70680408  0.00614961    -0.15750
F203        F  0.06665910  0.78161747  0.29399992    -0.15750
F204        F  0.11650722  0.81702090  0.25221202    -0.13380
C205        C  0.22077995  0.99737775  0.30654849     0.24630
C206        C  0.24760255  0.96010919  0.28835992    -0.23480
C207        C  0.27675599  0.96190427  0.30012331     0.19530
C208        C  0.27900998  0.99912977  0.99575128     0.24570
C209        C  0.25219000  0.03647741  0.01389909    -0.23430
C210        C  0.22303869  0.03467453  0.33547031     0.19470
F211        F  0.19641132  0.06960181  0.01830289    -0.13380
F212        F  0.19201911  0.99784128  0.29659503    -0.15750
F213        F  0.30776350  0.99859315  0.00574597    -0.15750
F214        F  0.30338834  0.92712038  0.28388262    -0.13380
C215        C  0.22178065  0.53616140  0.30855448     0.24630
C216        C  0.24859583  0.53331654  0.28310053    -0.23480
C217        C  0.27671356  0.49463995  0.29280416     0.19530
C218        C  0.27807074  0.46033182  0.32682388     0.24570
C219        C  0.25125915  0.46320887  0.01895452    -0.23430
C220        C  0.22313819  0.50186115  0.00924360     0.19470
F221        F  0.19663142  0.50636435  0.03257543    -0.13380
F222        F  0.19403898  0.57285626  0.30090429    -0.15750
F223        F  0.30580870  0.42360903  0.33446633    -0.15750
F224        F  0.30321772  0.49012493  0.26946710    -0.13380
O225        O  0.27319989  0.58562249  0.56328957    -0.79860
O226        O  0.26898026  0.87934335  0.57847319    -0.64550
O227        O  0.26351202  0.69961215  0.59196271    -1.11150
C228        C  0.18139445  0.76463846  0.51449001     1.07030
O229        O  0.21783214  0.90803835  0.58657160    -0.77760
O230        O  0.17559761  0.82900420  0.58392627    -0.65340
Ni231      Ni  0.29841437  0.63083885  0.58594870     1.34870
C232        C  0.17798366  0.77663707  0.60430070     0.85760
O233        O  0.29811364  0.77838465  0.61787197    -0.78300
O234        O  0.32373460  0.67426937  0.61029596    -0.88570
C235        C  0.24481631  0.91522341  0.59317368     0.85340
O236        O  0.31618285  0.66581286  0.54047533    -0.66770
O237        O  0.18801706  0.82262243  0.51256545    -0.86060
C238        C  0.32033815  0.72463064  0.53173516     0.86170
C239        C  0.32088821  0.73114145  0.62220047     1.07740
H240        H  0.25019830  0.79161701  0.52508556     0.39540
O241        O  0.23913433  0.79170614  0.54910523    -1.08720
O242        O  0.20198158  0.73209321  0.60254838    -0.65370
Ni243      Ni  0.23040064  0.70571031  0.56161346     1.26350
O244        O  0.30321797  0.77449312  0.54621553    -0.65600
O245        O  0.19613652  0.71588021  0.53254783    -0.77890
C246        C  0.24805562  0.57632224  0.58206400     0.85550
O247        O  0.22379659  0.61817947  0.57689615    -0.65070
Ni248      Ni  0.20469399  0.86343751  0.54876558     1.27450
Ni249      Ni  0.26844317  0.78765337  0.58378936     1.26060
H250        H  0.25500770  0.69413021  0.61697083     0.40090
O251        O  0.02077653  0.08669126  0.56349977    -0.79860
O252        O  0.01920691  0.37916854  0.57861483    -0.64550
O253        O  0.01242519  0.20022541  0.59237432    -1.11150
C254        C  0.42981339  0.26712327  0.51571098     1.07030
O255        O  0.46811914  0.41028885  0.58602311    -0.77760
O256        O  0.42520483  0.33300391  0.58452837    -0.65340
Ni257      Ni  0.04687736  0.13061514  0.58562232     1.34870
C258        C  0.42734733  0.28136633  0.60547357     0.85760
O259        O  0.04796573  0.27717383  0.61775047    -0.78300
O260        O  0.07303345  0.17286557  0.60945819    -0.88570
C261        C  0.99520709  0.41607527  0.59293180     0.85340
O262        O  0.06434115  0.16527213  0.53987676    -0.66770
O263        O  0.43704583  0.32461791  0.51315948    -0.86060
C264        C  0.06900087  0.22379748  0.53129726     0.86170
C265        C  0.07064543  0.22946613  0.62155127     1.07740
H266        H  0.49932637  0.29176428  0.52546910     0.39540
O267        O  0.48832634  0.29272482  0.54954343    -1.08720
O268        O  0.45096314  0.23578910  0.60377289    -0.65370
Ni269      Ni  0.47883447  0.20748008  0.56267359     1.26350
O270        O  0.05245010  0.27380100  0.54618908    -0.65600
O271        O  0.44420851  0.21846790  0.53413686    -0.77890
C272        C  0.49583784  0.07798389  0.58292863     0.85550
O273        O  0.47164039  0.12057681  0.57857132    -0.65070
Ni274      Ni  0.45440091  0.36550492  0.54878053     1.27450
Ni275      Ni  0.01796037  0.28777221  0.58400311     1.26060
H276        H  0.00418944  0.19484458  0.61748363     0.40090
O277        O  0.03159087  0.58671590  0.38302465    -0.79860
O278        O  0.02805085  0.87647655  0.39046912    -0.64550
O279        O  0.01139777  0.70429717  0.41948079    -1.11150
C280        C  0.42910067  0.76749107  0.68071123     1.07030
O281        O  0.47889869  0.91030203  0.40548694    -0.77760
O282        O  0.43521287  0.83188845  0.42892889    -0.65340
Ni283      Ni  0.04531203  0.63151237  0.42025472     1.34870
C284        C  0.43066024  0.77332626  0.43763123     0.85760
O285        O  0.05549236  0.77858189  0.43490447    -0.78300
O286        O  0.06266226  0.67241218  0.45586684    -0.88570
C287        C  0.00385162  0.91906582  0.38610707     0.85340
O288        O  0.07450514  0.66398621  0.38449236    -0.66770
O289        O  0.42675156  0.82419595  0.69265796    -0.86060
C290        C  0.07238558  0.71562986  0.69688363     0.86170
C291        C  0.06989212  0.72990629  0.45331438     1.07740
H292        H  0.49556205  0.80205021  0.68485820     0.39540
O293        O  0.48729995  0.79674893  0.37662745    -1.08720
O294        O  0.44728948  0.72324907  0.42288705    -0.65370
Ni295      Ni  0.48175288  0.70921084  0.38504321     1.26350
O296        O  0.04879180  0.76126814  0.36526972    -0.65600
O297        O  0.45173269  0.71973744  0.68465032    -0.77890
C298        C  0.50450070  0.58091321  0.37613557     0.85550
O299        O  0.48050429  0.61781389  0.39046633    -0.65070
Ni300      Ni  0.45285287  0.86642207  0.38325083     1.27450
Ni301      Ni  0.02087805  0.78954892  0.40635109     1.26060
H302        H  0.00040186  0.70526301  0.44356151     0.40090
O303        O  0.28195673  0.08854293  0.38236939    -0.79860
O304        O  0.27605788  0.37838660  0.39184975    -0.64550
O305        O  0.26064720  0.20495679  0.41977587    -1.11150
C306        C  0.17889650  0.26548139  0.68006814     1.07030
O307        O  0.22667047  0.41106539  0.40550521    -0.77760
O308        O  0.18378839  0.33077199  0.42854655    -0.65340
Ni309      Ni  0.29508654  0.13320856  0.42015985     1.34870
C310        C  0.17951333  0.27200431  0.43719307     0.85760
O311        O  0.30368116  0.28077015  0.43626806    -0.78300
O312        O  0.31176332  0.17408636  0.45634211    -0.88570
C313        C  0.25180813  0.42026931  0.38668115     0.85340
O314        O  0.32420390  0.16757009  0.38499694    -0.66770
O315        O  0.17601655  0.32227228  0.69208830    -0.86060
C316        C  0.32180575  0.21987895  0.69791048     0.86170
C317        C  0.31840073  0.23206424  0.45438154     1.07740
H318        H  0.24477782  0.30253443  0.68519832     0.39540
O319        O  0.23629458  0.29702508  0.37688158    -1.08720
O320        O  0.19654964  0.22217557  0.42259155    -0.65370
Ni321      Ni  0.23135884  0.20899235  0.38506412     1.26350
O322        O  0.29779417  0.26438220  0.36628015    -0.65600
O323        O  0.20171309  0.21827999  0.68428551    -0.77890
C324        C  0.25497498  0.08138645  0.37573994     0.85550
O325        O  0.23080863  0.11731173  0.39040218    -0.65070
Ni326      Ni  0.20139585  0.36576682  0.38298580     1.27450
Ni327      Ni  0.26941283  0.29091498  0.40721002     1.26060
H328        H  0.24957193  0.20510168  0.44378516     0.40090
C329        C  0.35676783  0.20229970  0.50109159     0.24630
C330        C  0.34600377  0.24277392  0.47137205    -0.23480
C331        C  0.36369102  0.29039462  0.45559381     0.19530
C332        C  0.39119179  0.29745827  0.46926552     0.24570
C333        C  0.40199121  0.25690337  0.49895216    -0.23430
C334        C  0.38425020  0.20939526  0.51478586     0.19470
F335        F  0.39285072  0.17094196  0.54448769    -0.13380
F336        F  0.34041588  0.15637872  0.51741653    -0.15750
F337        F  0.40755202  0.34333272  0.45289983    -0.15750
F338        F  0.35506867  0.32883434  0.42589593    -0.13380
C339        C  0.09644977  0.29374622  0.48399436     0.24630
C340        C  0.09654007  0.23429499  0.50527800    -0.23480
C341        C  0.12470716  0.18842782  0.50516940     0.19530
C342        C  0.15195819  0.20154663  0.48420916     0.24570
C343        C  0.15188015  0.26106484  0.46297099    -0.23430
C344        C  0.12368767  0.30686437  0.46303588     0.19470
F345        F  0.12206577  0.36347888  0.44161180    -0.13380
F346        F  0.06979025  0.33900506  0.48302911    -0.15750
F347        F  0.17862264  0.15631499  0.48520961    -0.15750
F348        F  0.12630334  0.13185463  0.52662619    -0.13380
C349        C  0.40437167  0.23329635  0.33009886     0.24630
C350        C  0.40029925  0.27060399  0.63062123    -0.23480
C351        C  0.37027317  0.28958820  0.61949271     0.19530
C352        C  0.34470204  0.27080091  0.64073967     0.24570
C353        C  0.34883658  0.23261260  0.67328653    -0.23430
C354        C  0.37881689  0.21424733  0.35127456     0.19470
F355        F  0.38323770  0.18018733  0.38354087    -0.13380
F356        F  0.43305807  0.21586420  0.34180057    -0.15750
F357        F  0.31596555  0.28908136  0.62924331    -0.15750
F358        F  0.36582025  0.32372366  0.58725252    -0.13380
C359        C  0.13658398  0.20370586  0.34528966     0.24630
C360        C  0.15280152  0.25318790  0.66308101    -0.23480
C361        C  0.14104874  0.29677150  0.63518235     0.19530
C362        C  0.11337319  0.29033382  0.62251169     0.24570
C363        C  0.09710872  0.24097299  0.63812639    -0.23430
C364        C  0.10890704  0.19725706  0.33261458     0.19470
F365        F  0.09337891  0.14910081  0.34770891    -0.13380
F366        F  0.14666959  0.16413465  0.37397151    -0.15750
F367        F  0.10320684  0.33012809  0.59393426    -0.15750
F368        F  0.15651755  0.34507659  0.62017264    -0.13380
C369        C  0.47306853  0.04523875  0.64607213     0.24630
C370        C  0.49706799  0.03466999  0.61709997    -0.23480
C371        C  0.02382358  0.98731440  0.62277963     0.19530
C372        C  0.02665160  0.95192020  0.65633396     0.24570
C373        C  0.00264382  0.96245463  0.35196307    -0.23430
C374        C  0.47589528  0.00983462  0.34629070     0.19470
F375        F  0.45231326  0.02230943  0.37334698    -0.13380
F376        F  0.44690862  0.09089155  0.30908771    -0.15750
F377        F  0.05282174  0.90630109  0.65999474    -0.15750
F378        F  0.04740951  0.97484650  0.59572746    -0.13380
C379        C  0.02599453  0.45429845  0.63769502     0.24630
C380        C  0.49810029  0.46065332  0.62147482    -0.23480
C381        C  0.47201531  0.50571919  0.63546113     0.19530
C382        C  0.47371257  0.54268894  0.66470661     0.24570
C383        C  0.50160485  0.53633386  0.34759411    -0.23430
C384        C  0.02769037  0.49126888  0.33360732     0.19470
F385        F  0.05508912  0.48236222  0.34830122    -0.13380
F386        F  0.05176652  0.41131402  0.62583291    -0.15750
F387        F  0.44794211  0.58567236  0.67656875    -0.15750
F388        F  0.44461723  0.51463005  0.62076556    -0.13380
C389        C  0.37460127  0.80730477  0.46263763     0.24630
C390        C  0.40312770  0.76285628  0.46361161    -0.23480
C391        C  0.40367826  0.70456408  0.48599506     0.19530
C392        C  0.37651001  0.69122573  0.50702204     0.24570
C393        C  0.34795982  0.73559816  0.50600358    -0.23430
C394        C  0.34741979  0.79396451  0.48366679     0.19470
F395        F  0.32037964  0.83771525  0.48164688    -0.13380
F396        F  0.37263325  0.86252071  0.44004816    -0.15750
F397        F  0.37850256  0.63596517  0.52957824    -0.15750
F398        F  0.43071235  0.66077549  0.48797605    -0.13380
C399        C  0.14311287  0.79423268  0.46769400     0.24630
C400        C  0.15376739  0.75399919  0.49754293    -0.23480
C401        C  0.13594741  0.70673702  0.51349541     0.19530
C402        C  0.10841812  0.69977125  0.49985908     0.24570
C403        C  0.09773093  0.74007674  0.47003788    -0.23430
C404        C  0.11560273  0.78723180  0.45403315     0.19470
F405        F  0.10710384  0.82539097  0.42419681    -0.13380
F406        F  0.15960433  0.83979671  0.45121132    -0.15750
F407        F  0.09191684  0.65426103  0.51638758    -0.15750
F408        F  0.14446850  0.66859303  0.54332831    -0.13380
C409        C  0.36316926  0.79301686  0.62362855     0.24630
C410        C  0.34698086  0.74349120  0.63917712    -0.23600
C411        C  0.35874905  0.69996476  0.66708885     0.19530
C412        C  0.38640389  0.70651441  0.67976996     0.24570
C413        C  0.40264138  0.75591648  0.66414572    -0.23430
C414        C  0.39082746  0.79957181  0.63631061     0.19470
F415        F  0.40632332  0.84777199  0.62120613    -0.13380
F416        F  0.35307761  0.83252776  0.59492927    -0.15750
F417        F  0.39657043  0.66679434  0.70837239    -0.15750
F418        F  0.34331313  0.65161371  0.68210666    -0.13380
C419        C  0.15508267  0.72548829  0.32808391     0.24630
C420        C  0.15095103  0.76393346  0.62894794    -0.23480
C421        C  0.12094390  0.78269944  0.61773722     0.19530
C422        C  0.09536643  0.76381233  0.63894649     0.24570
C423        C  0.09943568  0.72628145  0.67169247    -0.23430
C424        C  0.12948809  0.70687239  0.34936875     0.19470
F425        F  0.13395707  0.67247173  0.38153314    -0.13380
F426        F  0.18384041  0.70680318  0.33947908    -0.15750
F427        F  0.06665909  0.78161838  0.62733377    -0.15750
F428        F  0.11650719  0.81702078  0.58554528    -0.13380
C429        C  0.22077984  0.99737696  0.63988214     0.24630
C430        C  0.24760244  0.96010891  0.62169331    -0.23480
C431        C  0.27675595  0.96190442  0.63345640     0.19530
C432        C  0.27901499  0.99920019  0.32904654     0.24570
C433        C  0.25219260  0.03647633  0.34723115    -0.23430
C434        C  0.22303865  0.03467370  0.66880395     0.19470
F435        F  0.19640478  0.06945666  0.35171066    -0.13380
F436        F  0.19201894  0.99783993  0.62992900    -0.15750
F437        F  0.30777512  0.99873610  0.33900205    -0.15750
F438        F  0.30338831  0.92712108  0.61721542    -0.13380
C439        C  0.22178105  0.53616195  0.64188791     0.24630
C440        C  0.24859606  0.53331616  0.61643363    -0.23480
C441        C  0.27671368  0.49463860  0.62613692     0.19530
C442        C  0.27807093  0.46033043  0.66015662     0.24570
C443        C  0.25125931  0.46320797  0.35228661    -0.23430
C444        C  0.22313842  0.50186030  0.34257551     0.19470
F445        F  0.19663133  0.50636208  0.36590677    -0.13380
F446        F  0.19403951  0.57285786  0.63423809    -0.15750
F447        F  0.30580877  0.42360661  0.66779871    -0.15750
F448        F  0.30321765  0.49012258  0.60279950    -0.13380
O449        O  0.27319804  0.58561676  0.89662152    -0.79860
O450        O  0.26898443  0.87933445  0.91180924    -0.64550
O451        O  0.26351331  0.69960452  0.92529583    -1.11150
C452        C  0.18139347  0.76464038  0.84782668     1.07030
O453        O  0.21783638  0.90803480  0.91990743    -0.77760
O454        O  0.17560004  0.82900374  0.91726370    -0.65340
Ni455      Ni  0.29841494  0.63082988  0.91927899     1.34870
C456        C  0.17798571  0.77663576  0.93763746     0.85760
O457        O  0.29811717  0.77837105  0.95120509    -0.78300
O458        O  0.32373774  0.67425693  0.94362459    -0.88570
C459        C  0.24482109  0.91521698  0.92650924     0.85340
O460        O  0.31618163  0.66580569  0.87380498    -0.66770
O461        O  0.18801687  0.82262365  0.84590249    -0.86060
C462        C  0.32033803  0.72462331  0.86506643     0.86170
C463        C  0.32089223  0.73112767  0.95553039     1.07740
H464        H  0.25019899  0.79161344  0.85842051     0.39540
O465        O  0.23913553  0.79170239  0.88244040    -1.08720
O466        O  0.20198306  0.73209048  0.93588416    -0.65370
Ni467      Ni  0.23040058  0.70570724  0.89494803     1.26350
O468        O  0.30321926  0.77448519  0.87954878    -0.65600
O469        O  0.19613537  0.71588098  0.86588381    -0.77890
C470        C  0.24805401  0.57631852  0.91539727     0.85550
O471        O  0.22379527  0.61817700  0.91023008    -0.65070
Ni472      Ni  0.20469607  0.86343590  0.88210207     1.27450
Ni473      Ni  0.26844555  0.78764504  0.91712374     1.26060
H474        H  0.25500975  0.69412129  0.95030416     0.40090
O475        O  0.02077730  0.08669199  0.89683319    -0.79860
O476        O  0.01920710  0.37916932  0.91194650    -0.64550
O477        O  0.01242525  0.20022648  0.92570748    -1.11150
C478        C  0.42981349  0.26712286  0.84904403     1.07030
O479        O  0.46811942  0.41028935  0.91935562    -0.77760
O480        O  0.42520502  0.33300443  0.91786150    -0.65340
Ni481      Ni  0.04687761  0.13061623  0.91895637     1.34870
C482        C  0.42734729  0.28136672  0.93880662     0.85760
O483        O  0.04796550  0.27717619  0.95108308    -0.78300
O484        O  0.07303324  0.17286730  0.94279278    -0.88570
C485        C  0.99520747  0.41607586  0.92626388     0.85340
O486        O  0.06434218  0.16527200  0.87321095    -0.66770
O487        O  0.43704568  0.32461772  0.84649263    -0.86060
C488        C  0.06900139  0.22379742  0.86463061     0.86170
C489        C  0.07064498  0.22946864  0.95488504     1.07740
H490        H  0.49932634  0.29176441  0.85880177     0.39540
O491        O  0.48832637  0.29272503  0.88287614    -1.08720
O492        O  0.45096291  0.23578897  0.93710575    -0.65370
Ni493      Ni  0.47883467  0.20748024  0.89600657     1.26350
O494        O  0.05245017  0.27380124  0.87952169    -0.65600
O495        O  0.44420882  0.21846744  0.86746971    -0.77890
C496        C  0.49583852  0.07798407  0.91626165     0.85550
O497        O  0.47164097  0.12057675  0.91190430    -0.65070
Ni498      Ni  0.45440095  0.36550509  0.88211333     1.27450
Ni499      Ni  0.01796040  0.28777323  0.91733563     1.26060
H500        H  0.00418934  0.19484632  0.95081677     0.40090
O501        O  0.03159182  0.58671602  0.71635823    -0.79860
O502        O  0.02805027  0.87647743  0.72380310    -0.64550
O503        O  0.01139810  0.70429725  0.75281448    -1.11150
C504        C  0.42910362  0.76748267  0.01404062     1.07030
O505        O  0.47889799  0.91030197  0.73882074    -0.77760
O506        O  0.43521276  0.83188651  0.76226287    -0.65340
Ni507      Ni  0.04531263  0.63151302  0.75358847     1.34870
C508        C  0.43066036  0.77332401  0.77096482     0.85760
O509        O  0.05549209  0.77858327  0.76823863    -0.78300
O510        O  0.06266255  0.67241339  0.78920074    -0.88570
C511        C  0.00385089  0.91906621  0.71944091     0.85340
O512        O  0.07450556  0.66398758  0.71782623    -0.66770
O513        O  0.42675384  0.82418909  0.02598575    -0.86060
C514        C  0.07238685  0.71562682  0.03021809     0.86170
C515        C  0.06989193  0.72990796  0.78664870     1.07740
H516        H  0.49556377  0.80204353  0.01819006     0.39540
O517        O  0.48729993  0.79674869  0.70996119    -1.08720
O518        O  0.44728991  0.72324740  0.75622046    -0.65370
Ni519      Ni  0.48175336  0.70921025  0.71837677     1.26350
O520        O  0.04879194  0.76126933  0.69860369    -0.65600
O521        O  0.45173524  0.71972946  0.01798213    -0.77890
C522        C  0.50450171  0.58091298  0.70946902     0.85550
O523        O  0.48050522  0.61781318  0.72379991    -0.65070
Ni524      Ni  0.45285247  0.86642100  0.71658478     1.27450
Ni525      Ni  0.02087793  0.78954944  0.73968497     1.26060
H526        H  0.00040213  0.70526281  0.77689518     0.40090
O527        O  0.28195684  0.08854251  0.71570261    -0.79860
O528        O  0.27605822  0.37838620  0.72518286    -0.64550
O529        O  0.26064739  0.20495650  0.75310896    -1.11150
C530        C  0.17889416  0.26548828  0.01340440     1.07030
O531        O  0.22667080  0.41106498  0.73883823    -0.77760
O532        O  0.18378845  0.33077200  0.76187917    -0.65340
Ni533      Ni  0.29508668  0.13320817  0.75349303     1.34870
C534        C  0.17951348  0.27200429  0.77052580     0.85760
O535        O  0.30368134  0.28076973  0.76960122    -0.78300
O536        O  0.31176346  0.17408594  0.78967530    -0.88570
C537        C  0.25180848  0.42026892  0.72001423     0.85340
O538        O  0.32420411  0.16756951  0.71833010    -0.66770
O539        O  0.17601450  0.32227857  0.02542513    -0.86060
C540        C  0.32180484  0.21988180  0.03124352     0.86170
C541        C  0.31840088  0.23206381  0.78771473     1.07740
H542        H  0.24477654  0.30253964  0.01853310     0.39540
O543        O  0.23629492  0.29702477  0.71021454    -1.08720
O544        O  0.19654987  0.22217551  0.75592443    -0.65370
Ni545      Ni  0.23135910  0.20899211  0.71839711     1.26350
O546        O  0.29779447  0.26438172  0.69961331    -0.65600
O547        O  0.20171110  0.21828712  0.01762024    -0.77890
C548        C  0.25497507  0.08138613  0.70907318     0.85550
O549        O  0.23080875  0.11731160  0.72373532    -0.65070
Ni550      Ni  0.20139625  0.36576667  0.71631855     1.27450
Ni551      Ni  0.26941309  0.29091462  0.74054311     1.26060
H552        H  0.24957207  0.20510145  0.77711822     0.40090
C553        C  0.35676760  0.20230014  0.83442522     0.24630
C554        C  0.34600391  0.24277347  0.80470521    -0.23480
C555        C  0.36369149  0.29039325  0.78892651     0.19530
C556        C  0.39119225  0.29745688  0.80259821     0.24570
C557        C  0.40199132  0.25690284  0.83228529    -0.23430
C558        C  0.38424997  0.20939569  0.84811949     0.19470
F559        F  0.39285015  0.17094349  0.87782182    -0.13380
F560        F  0.34041526  0.15638015  0.85075062    -0.15750
F561        F  0.40755283  0.34333040  0.78623208    -0.15750
F562        F  0.35506947  0.32883203  0.75922819    -0.13380
C563        C  0.09644990  0.29374544  0.81732692     0.24630
C564        C  0.09654049  0.23429478  0.83861115    -0.23480
C565        C  0.12470773  0.18842809  0.83850281     0.19530
C566        C  0.15195866  0.20154696  0.81754238     0.24570
C567        C  0.15188035  0.26106476  0.79630376    -0.23430
C568        C  0.12368771  0.30686367  0.79636827     0.19470
F569        F  0.12206556  0.36347758  0.77494366    -0.13380
F570        F  0.06979020  0.33900363  0.81636127    -0.15750
F571        F  0.17862326  0.15631585  0.81854308    -0.15750
F572        F  0.12630417  0.13185534  0.85996000    -0.13380
C573        C  0.40437180  0.23329701  0.66343225     0.24630
C574        C  0.40029907  0.27060513  0.96395443    -0.23480
C575        C  0.37027289  0.28959189  0.95282639     0.19530
C576        C  0.34470151  0.27080557  0.97407335     0.24570
C577        C  0.34883583  0.23261561  0.00661973    -0.23430
C578        C  0.37881710  0.21424734  0.68460781     0.19470
F579        F  0.38323793  0.18018740  0.71687414    -0.13380
F580        F  0.43305817  0.21586543  0.67513409    -0.15750
F581        F  0.31596498  0.28908845  0.96257737    -0.15750
F582        F  0.36582007  0.32372896  0.92058663    -0.13380
C583        C  0.13658446  0.20370616  0.67862181     0.24630
C584        C  0.15279875  0.25319490  0.99641818    -0.23480
C585        C  0.14104905  0.29677181  0.96851532     0.19530
C586        C  0.11337413  0.29033299  0.95584348     0.24570
C587        C  0.09710764  0.24097705  0.97146071    -0.23430
C588        C  0.10890754  0.19725769  0.66594662     0.19470
F589        F  0.09337927  0.14910159  0.68104085    -0.13380
F590        F  0.14666991  0.16413480  0.70730368    -0.15750
F591        F  0.10321021  0.33012139  0.92726287    -0.15750
F592        F  0.15652020  0.34507138  0.95350277    -0.13380
C593        C  0.47306911  0.04523811  0.97940483     0.24630
C594        C  0.49706854  0.03466947  0.95043267    -0.23480
C595        C  0.02382401  0.98731335  0.95611208     0.19530
C596        C  0.02665190  0.95191835  0.98966620     0.24570
C597        C  0.00264307  0.96245510  0.68529690    -0.23430
C598        C  0.47589445  0.00983474  0.67962435     0.19470
F599        F  0.45231221  0.02230899  0.70668044    -0.13380
F600        F  0.44690784  0.09089165  0.64242126    -0.15750
F601        F  0.05282183  0.90629858  0.99332679    -0.15750
F602        F  0.04740990  0.97484562  0.92905984    -0.13380
C603        C  0.02599588  0.45429926  0.97102605     0.24630
C604        C  0.49810105  0.46065311  0.95480711    -0.23480
C605        C  0.47201590  0.50571680  0.96879499     0.19530
C606        C  0.47371341  0.54268502  0.99804098     0.24570
C607        C  0.50160588  0.53633399  0.68092732    -0.23430
C608        C  0.02769158  0.49127064  0.66693944     0.19470
F609        F  0.05509077  0.48236534  0.68163228    -0.13380
F610        F  0.05176821  0.41131725  0.95916216    -0.15750
F611        F  0.44794258  0.58566579  0.00990489    -0.15750
F612        F  0.44461731  0.51462685  0.95410056    -0.13380
C613        C  0.37460129  0.80730122  0.79597123     0.24630
C614        C  0.40312773  0.76285266  0.79694474    -0.23480
C615        C  0.40367813  0.70455879  0.81932680     0.19530
C616        C  0.37650972  0.69121887  0.84035284     0.24570
C617        C  0.34795957  0.73559144  0.83933487    -0.23430
C618        C  0.34741969  0.79395943  0.81699951     0.19470
F619        F  0.32037956  0.83771053  0.81498029    -0.13380
F620        F  0.37263338  0.86251885  0.77338309    -0.15750
F621        F  0.37850208  0.63595679  0.86290784    -0.15750
F622        F  0.43071221  0.66076999  0.82130735    -0.13380
C623        C  0.14311149  0.79423705  0.80103096     0.24630
C624        C  0.15376601  0.75400273  0.83087963    -0.23480
C625        C  0.13594612  0.70673989  0.84683140     0.19530
C626        C  0.10841718  0.69977368  0.83319437     0.24570
C627        C  0.09773019  0.74007940  0.80337313    -0.23430
C628        C  0.11560168  0.78723573  0.78736939     0.19470
F629        F  0.10710290  0.82539560  0.75753324    -0.13380
F630        F  0.15960275  0.83980201  0.78454906    -0.15750
F631        F  0.09191611  0.65426253  0.84972213    -0.15750
F632        F  0.14446705  0.66859524  0.87666415    -0.13380
C633        C  0.36317733  0.79299459  0.95695140     0.24630
C634        C  0.34698616  0.74347629  0.97250464    -0.23600
C635        C  0.35875168  0.69995680  0.00042036     0.19530
C636        C  0.38640605  0.70650799  0.01310196     0.24570
C637        C  0.40264543  0.75590492  0.99747445    -0.23430
C638        C  0.39083475  0.79955191  0.96963443     0.19470
F639        F  0.40633286  0.84774625  0.95452642    -0.13380
F640        F  0.35308879  0.83249631  0.92824745    -0.15750
F641        F  0.39657028  0.66679497  0.04170792    -0.15750
F642        F  0.34331347  0.65161165  0.01544177    -0.13380
C643        C  0.15508280  0.72548972  0.66141746     0.24630
C644        C  0.15095298  0.76393259  0.96228456    -0.23480
C645        C  0.12094606  0.78269826  0.95107324     0.19530
C646        C  0.09536848  0.76381022  0.97228174     0.24570
C647        C  0.09943733  0.72627907  0.00502771    -0.23430
C648        C  0.12948826  0.70687434  0.68270259     0.19470
F649        F  0.13395731  0.67247438  0.71486716    -0.13380
F650        F  0.18384059  0.70680486  0.67281254    -0.15750
F651        F  0.06666141  0.78161554  0.96066824    -0.15750
F652        F  0.11650973  0.81701989  0.91888130    -0.13380
C653        C  0.22078768  0.99744363  0.97317971     0.24630
C654        C  0.24760785  0.96010370  0.95502784    -0.23480
C655        C  0.27675507  0.96183028  0.96682801     0.19530
C656        C  0.27901501  0.99920028  0.66237961     0.24570
C657        C  0.25219263  0.03647597  0.68056447    -0.23430
C658        C  0.22304234  0.03474367  0.00210163     0.19470
F659        F  0.19640474  0.06945528  0.68504462    -0.13380
F660        F  0.19203342  0.99797970  0.96318720    -0.15750
F661        F  0.30777521  0.99873663  0.67233481    -0.15750
F662        F  0.30338447  0.92696965  0.95062666    -0.13380
C663        C  0.22178004  0.53616073  0.97522219     0.24630
C664        C  0.24859489  0.53331428  0.94976761    -0.23480
C665        C  0.27671271  0.49463790  0.95947111     0.19530
C666        C  0.27807028  0.46033138  0.99349125     0.24570
C667        C  0.25125968  0.46320752  0.68561967    -0.23430
C668        C  0.22313889  0.50186081  0.67590891     0.19470
F669        F  0.19663199  0.50636357  0.69924052    -0.13380
F670        F  0.19403832  0.57285562  0.96757221    -0.15750
F671        F  0.30580832  0.42360882  0.00113358    -0.15750
F672        F  0.30321658  0.49012153  0.93613353    -0.13380
O673        O  0.77319961  0.58562256  0.22995629    -0.79860
O674        O  0.76898032  0.87934392  0.24513945    -0.64550
O675        O  0.76351213  0.69961261  0.25862905    -1.11150
C676        C  0.68139401  0.76463924  0.18115720     1.07030
O677        O  0.71783219  0.90803834  0.25323851    -0.77760
O678        O  0.67559749  0.82900438  0.25059323    -0.65340
Ni679      Ni  0.79841436  0.63083916  0.25261488     1.34870
C680        C  0.67798365  0.77663721  0.27096764     0.85760
O681        O  0.79811398  0.77838510  0.28453778    -0.78300
O682        O  0.82373492  0.67426988  0.27696157    -0.88570
C683        C  0.74481640  0.91522369  0.25984027     0.85340
O684        O  0.81618235  0.66581279  0.20714121    -0.66770
O685        O  0.68801677  0.82262309  0.17923245    -0.86060
C686        C  0.82033781  0.72463038  0.19840079     0.86170
C687        C  0.82088859  0.73114195  0.28886608     1.07740
H688        H  0.75019795  0.79161742  0.19175201     0.39540
O689        O  0.73913419  0.79170658  0.21577176    -1.08720
O690        O  0.70198176  0.73209387  0.26921540    -0.65370
Ni691      Ni  0.73040048  0.70571083  0.22828022     1.26350
O692        O  0.80321795  0.77449321  0.21288126    -0.65600
O693        O  0.69613610  0.71588091  0.19921497    -0.77890
C694        C  0.74805537  0.57632268  0.24873091     0.85550
O695        O  0.72379638  0.61818010  0.24356315    -0.65070
Ni696      Ni  0.70469383  0.86343792  0.21543251     1.27450
Ni697      Ni  0.76844333  0.78765380  0.25045550     1.26060
H698        H  0.75500797  0.69413078  0.28363725     0.40090
O699        O  0.52077694  0.08669060  0.23016611    -0.79860
O700        O  0.51920671  0.37916728  0.24528224    -0.64550
O701        O  0.51242507  0.20022412  0.25904127    -1.11150
C702        C  0.92981377  0.26712189  0.18237728     1.07030
O703        O  0.96811894  0.41028796  0.25268979    -0.77760
O704        O  0.92520491  0.33300270  0.25119493    -0.65340
Ni705      Ni  0.54687739  0.13061405  0.25228949     1.34870
C706        C  0.92734726  0.28136499  0.27214003     0.85760
O707        O  0.54796523  0.27717252  0.28441810    -0.78300
O708        O  0.57303308  0.17286424  0.27612611    -0.88570
C709        C  0.49520680  0.41607424  0.25959882     0.85340
O710        O  0.56434176  0.16527141  0.20654433    -0.66770
O711        O  0.93704607  0.32461662  0.17982601    -0.86060
C712        C  0.56900119  0.22379698  0.19796494     0.86170
C713        C  0.57064491  0.22946488  0.28821915     1.07740
H714        H  0.99932664  0.29176335  0.19213608     0.39540
O715        O  0.98832643  0.29272370  0.21621033    -1.08720
O716        O  0.95096287  0.23578727  0.27043920    -0.65370
Ni717      Ni  0.97883464  0.20747876  0.22934010     1.26350
O718        O  0.55245008  0.27380021  0.21285666    -0.65600
O719        O  0.94420896  0.21846645  0.20080303    -0.77890
C720        C  0.99583824  0.07798264  0.24959473     0.85550
O721        O  0.97164070  0.12057523  0.24523735    -0.65070
Ni722      Ni  0.95440098  0.36550373  0.21544715     1.27450
Ni723      Ni  0.51796015  0.28777099  0.25067038     1.26060
H724        H  0.50418912  0.19484311  0.28415050     0.40090
O725        O  0.53159313  0.58671250  0.04969193    -0.79860
O726        O  0.52805009  0.87647452  0.05713532    -0.64550
O727        O  0.51139846  0.70429427  0.08614791    -1.11150
C728        C  0.92910048  0.76749277  0.34737748     1.07030
O729        O  0.97889743  0.91029803  0.07215138    -0.77760
O730        O  0.93521165  0.83188437  0.09559144    -0.65340
Ni731      Ni  0.54531314  0.63151033  0.08692246     1.34870
C732        C  0.93065979  0.77332208  0.10429502     0.85760
O733        O  0.55549149  0.77858170  0.10157232    -0.78300
O734        O  0.56266217  0.67241187  0.12253486    -0.88570
C735        C  0.50385067  0.91906300  0.05277261     0.85340
O736        O  0.57450661  0.66398469  0.05116079    -0.66770
O737        O  0.92675167  0.82419777  0.35932396    -0.86060
C738        C  0.57238534  0.71562843  0.36354970     0.86170
C739        C  0.56989144  0.72990655  0.11998245     1.07740
H740        H  0.99556206  0.80205010  0.35152444     0.39540
O741        O  0.98730099  0.79674352  0.04329292    -1.08720
O742        O  0.94729017  0.72324433  0.08955245    -0.65370
Ni743      Ni  0.98175454  0.70920520  0.05170967     1.26350
O744        O  0.54879298  0.76126573  0.03193736    -0.65600
O745        O  0.95173223  0.71973869  0.35131682    -0.77890
C746        C  0.00450309  0.58090881  0.04280284     0.85550
O747        O  0.98050659  0.61780826  0.05713416    -0.65070
Ni748      Ni  0.95285331  0.86641598  0.04991386     1.27450
Ni749      Ni  0.52087803  0.78954646  0.07301777     1.26060
H750        H  0.50040218  0.70526022  0.11022840     0.40090
O751        O  0.78195489  0.08854462  0.04903553    -0.79860
O752        O  0.77605802  0.37838876  0.05851804    -0.64550
O753        O  0.76064677  0.20495870  0.08644246    -1.11150
C754        C  0.67889599  0.26548139  0.34673558     1.07030
O755        O  0.72667078  0.41106801  0.07217407    -0.77760
O756        O  0.68378845  0.33077517  0.09521560    -0.65340
Ni757      Ni  0.79508581  0.13320964  0.08682558     1.34870
C758        C  0.67951326  0.27200738  0.10386148     0.85760
O759        O  0.80368125  0.28077046  0.10293508    -0.78300
O760        O  0.81176364  0.17408594  0.12300766    -0.88570
C761        C  0.75180830  0.42027158  0.05334956     0.85340
O762        O  0.82420292  0.16757122  0.05166225    -0.66770
O763        O  0.67601602  0.32227221  0.35875584    -0.86060
C764        C  0.82180550  0.21987955  0.36457734     0.86170
C765        C  0.81840103  0.23206376  0.12104777     1.07740
H766        H  0.74477741  0.30253485  0.35186534     0.39540
O767        O  0.73629394  0.29702913  0.04354937    -1.08720
O768        O  0.69654919  0.22217913  0.08925917    -0.65370
Ni769      Ni  0.73135780  0.20899664  0.05173111     1.26350
O770        O  0.79779379  0.26438523  0.03294708    -0.65600
O771        O  0.70171273  0.21828020  0.35095264    -0.77890
C772        C  0.75497277  0.08138935  0.04240663     0.85550
O773        O  0.73080676  0.11731634  0.05706835    -0.65070
Ni774      Ni  0.70139534  0.36577125  0.04965483     1.27450
Ni775      Ni  0.76941268  0.29091697  0.07387742     1.26060
H776        H  0.74957172  0.20510301  0.11045192     0.40090
C777        C  0.85676838  0.20229802  0.16775752     0.24630
C778        C  0.84600422  0.24277275  0.13803821    -0.23480
C779        C  0.86369139  0.29039374  0.12226019     0.19530
C780        C  0.89119215  0.29745725  0.13593191     0.24570
C781        C  0.90199166  0.25690194  0.16561836    -0.23430
C782        C  0.88425076  0.20939347  0.18145183     0.19470
F783        F  0.89285135  0.17093979  0.21115351    -0.13380
F784        F  0.84041648  0.15637680  0.18408226    -0.15750
F785        F  0.90755227  0.34333206  0.11956645    -0.15750
F786        F  0.85506891  0.32883400  0.09256253    -0.13380
C787        C  0.59644969  0.29374656  0.15066224     0.24630
C788        C  0.59654037  0.23429529  0.17194591    -0.23480
C789        C  0.62470774  0.18842905  0.17183760     0.19530
C790        C  0.65195869  0.20154885  0.15087757     0.24570
C791        C  0.65188026  0.26106717  0.12963942    -0.23430
C792        C  0.62368752  0.30686572  0.12970402     0.19470
F793        F  0.62206530  0.36348011  0.10827981    -0.13380
F794        F  0.56978988  0.33900444  0.14969669    -0.15750
F795        F  0.67862342  0.15631807  0.15187815    -0.15750
F796        F  0.62630424  0.13185588  0.19329444    -0.13380
C797        C  0.90437138  0.23329695  0.99676515     0.24630
C798        C  0.90029916  0.27060328  0.29728782    -0.23480
C799        C  0.87027305  0.28958837  0.28615950     0.19530
C800        C  0.84470184  0.27080175  0.30740660     0.24570
C801        C  0.84883634  0.23261322  0.33995340    -0.23430
C802        C  0.87881641  0.21424821  0.01794069     0.19470
F803        F  0.88323709  0.18018692  0.05020669    -0.13380
F804        F  0.93305778  0.21586333  0.00846675    -0.15750
F805        F  0.81596532  0.28908298  0.29591042    -0.15750
F806        F  0.86582016  0.32372401  0.25391936    -0.13380
C807        C  0.63657892  0.20371979  0.01196259     0.24630
C808        C  0.65280092  0.25318771  0.32974872    -0.23480
C809        C  0.64104799  0.29677114  0.30185008     0.19530
C810        C  0.61337244  0.29033312  0.28917953     0.24570
C811        C  0.59710811  0.24097214  0.30479433    -0.23430
C812        C  0.60890312  0.19726899  0.99928550     0.19470
F813        F  0.59337262  0.14911814  0.01438238    -0.13380
F814        F  0.64666065  0.16415734  0.04064930    -0.15750
F815        F  0.60320600  0.33012717  0.26060207    -0.15750
F816        F  0.65651668  0.34507634  0.28684024    -0.13380
C817        C  0.97306923  0.04523835  0.31273844     0.24630
C818        C  0.99706847  0.03466900  0.28376611    -0.23480
C819        C  0.52382400  0.98731316  0.28944562     0.19530
C820        C  0.52665216  0.95191920  0.32299998     0.24570
C821        C  0.50264334  0.96245304  0.01862908    -0.23430
C822        C  0.97589490  0.00983339  0.01295682     0.19470
F823        F  0.95231271  0.02230756  0.04001297    -0.13380
F824        F  0.94690856  0.09089152  0.97575419    -0.15750
F825        F  0.55282221  0.90629980  0.32666064    -0.15750
F826        F  0.54740971  0.97484475  0.26239325    -0.13380
C827        C  0.52599359  0.45429642  0.30436296     0.24630
C828        C  0.99809978  0.46065253  0.28814177    -0.23480
C829        C  0.97201496  0.50571990  0.30212702     0.19530
C830        C  0.97371197  0.54269006  0.33137243     0.24570
C831        C  0.00160724  0.53633103  0.01426054    -0.23430
C832        C  0.52769323  0.49127015  0.00027094     0.19470
F833        F  0.55509296  0.48236607  0.01496253    -0.13380
F834        F  0.55176539  0.41131048  0.29250192    -0.15750
F835        F  0.94794176  0.58567520  0.34323346    -0.15750
F836        F  0.94461733  0.51463196  0.28743040    -0.13380
C837        C  0.87460061  0.80730105  0.12930098     0.24630
C838        C  0.90312706  0.76285259  0.13027531    -0.23480
C839        C  0.90367768  0.70456155  0.15265975     0.19530
C840        C  0.87650952  0.69122438  0.17368740     0.24570
C841        C  0.84795936  0.73559691  0.17266872    -0.23430
C842        C  0.84741923  0.79396202  0.15033090     0.19470
F843        F  0.82037910  0.83771269  0.14831072    -0.13380
F844        F  0.87263247  0.86251585  0.10671062    -0.15750
F845        F  0.87850214  0.63596497  0.19624450    -0.15750
F846        F  0.93071175  0.66077308  0.15464119    -0.13380
C847        C  0.64311175  0.79423441  0.13436200     0.24630
C848        C  0.65376672  0.75400026  0.16421050    -0.23480
C849        C  0.63594695  0.70673774  0.18016300     0.19530
C850        C  0.60841752  0.69977206  0.16652700     0.24570
C851        C  0.59772999  0.74007796  0.13670610    -0.23430
C852        C  0.61560146  0.78723363  0.12070147     0.19470
F853        F  0.60710219  0.82539335  0.09086546    -0.13380
F854        F  0.65960295  0.83979892  0.11787937    -0.15750
F855        F  0.59191654  0.65426127  0.18305541    -0.15750
F856        F  0.64446843  0.66859316  0.20999557    -0.13380
C857        C  0.86316940  0.79301792  0.29029435     0.24630
C858        C  0.84698120  0.74349179  0.30584269    -0.23600
C859        C  0.85874933  0.69996553  0.33375450     0.19530
C860        C  0.88640390  0.70651581  0.34643594     0.24570
C861        C  0.90264120  0.75591836  0.33081195    -0.23430
C862        C  0.89082736  0.79957352  0.30297675     0.19470
F863        F  0.90632309  0.84777402  0.28787245    -0.13380
F864        F  0.85307778  0.83252870  0.26159500    -0.15750
F865        F  0.89657040  0.66679579  0.37503841    -0.15750
F866        F  0.84331356  0.65161409  0.34877210    -0.13380
C867        C  0.65508441  0.72548867  0.99475407     0.24630
C868        C  0.65095098  0.76393286  0.29561463    -0.23480
C869        C  0.62094388  0.78269889  0.28440378     0.19530
C870        C  0.59536639  0.76381125  0.30561275     0.24570
C871        C  0.59943554  0.72627981  0.33835859    -0.23430
C872        C  0.62948968  0.70687267  0.01603860     0.19470
F873        F  0.63395831  0.67247265  0.04820323    -0.13380
F874        F  0.68384204  0.70680408  0.00614961    -0.15750
F875        F  0.56665909  0.78161748  0.29399992    -0.15750
F876        F  0.61650722  0.81702091  0.25221202    -0.13380
C877        C  0.72077995  0.99737775  0.30654849     0.24630
C878        C  0.74760255  0.96010919  0.28835992    -0.23480
C879        C  0.77675599  0.96190427  0.30012331     0.19530
C880        C  0.77900998  0.99912977  0.99575128     0.24570
C881        C  0.75219000  0.03647741  0.01389909    -0.23430
C882        C  0.72303869  0.03467453  0.33547031     0.19470
F883        F  0.69641132  0.06960181  0.01830289    -0.13380
F884        F  0.69201911  0.99784128  0.29659502    -0.15750
F885        F  0.80776350  0.99859314  0.00574597    -0.15750
F886        F  0.80338834  0.92712038  0.28388262    -0.13380
C887        C  0.72178065  0.53616140  0.30855448     0.24630
C888        C  0.74859583  0.53331654  0.28310053    -0.23480
C889        C  0.77671356  0.49463995  0.29280416     0.19530
C890        C  0.77807074  0.46033182  0.32682388     0.24570
C891        C  0.75125915  0.46320887  0.01895452    -0.23430
C892        C  0.72313819  0.50186114  0.00924360     0.19470
F893        F  0.69663141  0.50636434  0.03257543    -0.13380
F894        F  0.69403898  0.57285626  0.30090429    -0.15750
F895        F  0.80580870  0.42360903  0.33446632    -0.15750
F896        F  0.80321772  0.49012493  0.26946709    -0.13380
O897        O  0.77319989  0.58562249  0.56328956    -0.79860
O898        O  0.76898026  0.87934335  0.57847319    -0.64550
O899        O  0.76351202  0.69961215  0.59196271    -1.11150
C900        C  0.68139445  0.76463846  0.51449001     1.07030
O901        O  0.71783214  0.90803834  0.58657160    -0.77760
O902        O  0.67559761  0.82900420  0.58392627    -0.65340
Ni903      Ni  0.79841437  0.63083885  0.58594870     1.34870
C904        C  0.67798366  0.77663706  0.60430070     0.85760
O905        O  0.79811364  0.77838465  0.61787197    -0.78300
O906        O  0.82373460  0.67426937  0.61029595    -0.88570
C907        C  0.74481631  0.91522341  0.59317368     0.85340
O908        O  0.81618285  0.66581286  0.54047533    -0.66770
O909        O  0.68801706  0.82262243  0.51256545    -0.86060
C910        C  0.82033815  0.72463064  0.53173516     0.86170
C911        C  0.82088821  0.73114145  0.62220047     1.07740
H912        H  0.75019830  0.79161701  0.52508556     0.39540
O913        O  0.73913433  0.79170614  0.54910523    -1.08720
O914        O  0.70198158  0.73209321  0.60254838    -0.65370
Ni915      Ni  0.73040064  0.70571031  0.56161346     1.26350
O916        O  0.80321797  0.77449312  0.54621553    -0.65600
O917        O  0.69613653  0.71588020  0.53254783    -0.77890
C918        C  0.74805562  0.57632224  0.58206400     0.85550
O919        O  0.72379659  0.61817946  0.57689615    -0.65070
Ni920      Ni  0.70469399  0.86343751  0.54876558     1.27450
Ni921      Ni  0.76844317  0.78765337  0.58378936     1.26060
H922        H  0.75500770  0.69413021  0.61697083     0.40090
O923        O  0.52077653  0.08669126  0.56349976    -0.79860
O924        O  0.51920691  0.37916854  0.57861483    -0.64550
O925        O  0.51242519  0.20022541  0.59237432    -1.11150
C926        C  0.92981339  0.26712327  0.51571098     1.07030
O927        O  0.96811914  0.41028885  0.58602311    -0.77760
O928        O  0.92520483  0.33300391  0.58452837    -0.65340
Ni929      Ni  0.54687736  0.13061514  0.58562232     1.34870
C930        C  0.92734733  0.28136633  0.60547357     0.85760
O931        O  0.54796574  0.27717383  0.61775047    -0.78300
O932        O  0.57303344  0.17286557  0.60945819    -0.88570
C933        C  0.49520709  0.41607527  0.59293180     0.85340
O934        O  0.56434115  0.16527213  0.53987676    -0.66770
O935        O  0.93704583  0.32461791  0.51315948    -0.86060
C936        C  0.56900087  0.22379748  0.53129726     0.86170
C937        C  0.57064543  0.22946612  0.62155127     1.07740
H938        H  0.99932637  0.29176429  0.52546910     0.39540
O939        O  0.98832634  0.29272482  0.54954344    -1.08720
O940        O  0.95096314  0.23578910  0.60377289    -0.65370
Ni941      Ni  0.97883447  0.20748008  0.56267359     1.26350
O942        O  0.55245010  0.27380100  0.54618908    -0.65600
O943        O  0.94420851  0.21846790  0.53413686    -0.77890
C944        C  0.99583784  0.07798389  0.58292863     0.85550
O945        O  0.97164039  0.12057681  0.57857132    -0.65070
Ni946      Ni  0.95440091  0.36550492  0.54878053     1.27450
Ni947      Ni  0.51796037  0.28777221  0.58400311     1.26060
H948        H  0.50418944  0.19484458  0.61748363     0.40090
O949        O  0.53159087  0.58671590  0.38302465    -0.79860
O950        O  0.52805085  0.87647655  0.39046912    -0.64550
O951        O  0.51139777  0.70429717  0.41948079    -1.11150
C952        C  0.92910067  0.76749107  0.68071123     1.07030
O953        O  0.97889869  0.91030203  0.40548694    -0.77760
O954        O  0.93521287  0.83188845  0.42892889    -0.65340
Ni955      Ni  0.54531203  0.63151237  0.42025472     1.34870
C956        C  0.93066024  0.77332626  0.43763123     0.85760
O957        O  0.55549236  0.77858189  0.43490447    -0.78300
O958        O  0.56266226  0.67241218  0.45586684    -0.88570
C959        C  0.50385162  0.91906582  0.38610707     0.85340
O960        O  0.57450514  0.66398621  0.38449236    -0.66770
O961        O  0.92675156  0.82419595  0.69265796    -0.86060
C962        C  0.57238558  0.71562985  0.69688363     0.86170
C963        C  0.56989212  0.72990629  0.45331438     1.07740
H964        H  0.99556205  0.80205021  0.68485820     0.39540
O965        O  0.98729995  0.79674893  0.37662745    -1.08720
O966        O  0.94728949  0.72324907  0.42288705    -0.65370
Ni967      Ni  0.98175289  0.70921084  0.38504321     1.26350
O968        O  0.54879180  0.76126815  0.36526972    -0.65600
O969        O  0.95173269  0.71973744  0.68465032    -0.77890
C970        C  0.00450070  0.58091321  0.37613557     0.85550
O971        O  0.98050429  0.61781389  0.39046633    -0.65070
Ni972      Ni  0.95285287  0.86642207  0.38325083     1.27450
Ni973      Ni  0.52087805  0.78954892  0.40635109     1.26060
H974        H  0.50040186  0.70526301  0.44356151     0.40090
O975        O  0.78195673  0.08854293  0.38236939    -0.79860
O976        O  0.77605788  0.37838660  0.39184975    -0.64550
O977        O  0.76064720  0.20495679  0.41977587    -1.11150
C978        C  0.67889650  0.26548138  0.68006814     1.07030
O979        O  0.72667047  0.41106539  0.40550521    -0.77760
O980        O  0.68378839  0.33077199  0.42854655    -0.65340
Ni981      Ni  0.79508654  0.13320856  0.42015984     1.34870
C982        C  0.67951333  0.27200431  0.43719307     0.85760
O983        O  0.80368116  0.28077015  0.43626805    -0.78300
O984        O  0.81176332  0.17408636  0.45634211    -0.88570
C985        C  0.75180813  0.42026931  0.38668115     0.85340
O986        O  0.82420390  0.16757009  0.38499693    -0.66770
O987        O  0.67601655  0.32227227  0.69208830    -0.86060
C988        C  0.82180575  0.21987895  0.69791048     0.86170
C989        C  0.81840073  0.23206424  0.45438154     1.07740
H990        H  0.74477782  0.30253443  0.68519831     0.39540
O991        O  0.73629458  0.29702508  0.37688158    -1.08720
O992        O  0.69654964  0.22217557  0.42259155    -0.65370
Ni993      Ni  0.73135884  0.20899235  0.38506412     1.26350
O994        O  0.79779417  0.26438220  0.36628015    -0.65600
O995        O  0.70171309  0.21827999  0.68428551    -0.77890
C996        C  0.75497498  0.08138645  0.37573994     0.85550
O997        O  0.73080863  0.11731173  0.39040218    -0.65070
Ni998      Ni  0.70139585  0.36576681  0.38298580     1.27450
Ni999      Ni  0.76941283  0.29091498  0.40721002     1.26060
H1000       H  0.74957193  0.20510168  0.44378516     0.40090
C1001       C  0.85676783  0.20229970  0.50109159     0.24630
C1002       C  0.84600377  0.24277392  0.47137205    -0.23480
C1003       C  0.86369102  0.29039462  0.45559381     0.19530
C1004       C  0.89119179  0.29745827  0.46926552     0.24570
C1005       C  0.90199121  0.25690338  0.49895216    -0.23430
C1006       C  0.88425020  0.20939526  0.51478586     0.19470
F1007       F  0.89285072  0.17094196  0.54448769    -0.13380
F1008       F  0.84041588  0.15637872  0.51741653    -0.15750
F1009       F  0.90755202  0.34333272  0.45289983    -0.15750
F1010       F  0.85506867  0.32883434  0.42589593    -0.13380
C1011       C  0.59644977  0.29374622  0.48399436     0.24630
C1012       C  0.59654007  0.23429499  0.50527800    -0.23480
C1013       C  0.62470716  0.18842782  0.50516940     0.19530
C1014       C  0.65195819  0.20154662  0.48420916     0.24570
C1015       C  0.65188015  0.26106484  0.46297099    -0.23430
C1016       C  0.62368767  0.30686437  0.46303588     0.19470
F1017       F  0.62206577  0.36347888  0.44161180    -0.13380
F1018       F  0.56979025  0.33900506  0.48302911    -0.15750
F1019       F  0.67862264  0.15631499  0.48520961    -0.15750
F1020       F  0.62630334  0.13185463  0.52662619    -0.13380
C1021       C  0.90437167  0.23329636  0.33009886     0.24630
C1022       C  0.90029925  0.27060399  0.63062123    -0.23480
C1023       C  0.87027317  0.28958820  0.61949271     0.19530
C1024       C  0.84470204  0.27080090  0.64073967     0.24570
C1025       C  0.84883658  0.23261259  0.67328653    -0.23430
C1026       C  0.87881689  0.21424733  0.35127456     0.19470
F1027       F  0.88323770  0.18018734  0.38354088    -0.13380
F1028       F  0.93305807  0.21586422  0.34180057    -0.15750
F1029       F  0.81596555  0.28908136  0.62924331    -0.15750
F1030       F  0.86582025  0.32372366  0.58725252    -0.13380
C1031       C  0.63658398  0.20370586  0.34528966     0.24630
C1032       C  0.65280152  0.25318790  0.66308101    -0.23480
C1033       C  0.64104874  0.29677150  0.63518235     0.19530
C1034       C  0.61337319  0.29033382  0.62251169     0.24570
C1035       C  0.59710872  0.24097299  0.63812639    -0.23430
C1036       C  0.60890704  0.19725706  0.33261458     0.19470
F1037       F  0.59337891  0.14910081  0.34770891    -0.13380
F1038       F  0.64666959  0.16413465  0.37397151    -0.15750
F1039       F  0.60320684  0.33012809  0.59393426    -0.15750
F1040       F  0.65651755  0.34507658  0.62017264    -0.13380
C1041       C  0.97306853  0.04523875  0.64607213     0.24630
C1042       C  0.99706799  0.03467000  0.61709998    -0.23480
C1043       C  0.52382358  0.98731439  0.62277963     0.19530
C1044       C  0.52665160  0.95192019  0.65633396     0.24570
C1045       C  0.50264382  0.96245463  0.35196308    -0.23430
C1046       C  0.97589528  0.00983463  0.34629070     0.19470
F1047       F  0.95231327  0.02230945  0.37334698    -0.13380
F1048       F  0.94690863  0.09089157  0.30908771    -0.15750
F1049       F  0.55282174  0.90630108  0.65999473    -0.15750
F1050       F  0.54740951  0.97484649  0.59572745    -0.13380
C1051       C  0.52599453  0.45429844  0.63769502     0.24630
C1052       C  0.99810029  0.46065333  0.62147482    -0.23480
C1053       C  0.97201531  0.50571919  0.63546113     0.19530
C1054       C  0.97371257  0.54268894  0.66470661     0.24570
C1055       C  0.00160485  0.53633386  0.34759411    -0.23430
C1056       C  0.52769037  0.49126888  0.33360732     0.19470
F1057       F  0.55508911  0.48236222  0.34830122    -0.13380
F1058       F  0.55176652  0.41131402  0.62583291    -0.15750
F1059       F  0.94794211  0.58567236  0.67656875    -0.15750
F1060       F  0.94461723  0.51463005  0.62076556    -0.13380
C1061       C  0.87460127  0.80730477  0.46263763     0.24630
C1062       C  0.90312770  0.76285628  0.46361161    -0.23480
C1063       C  0.90367827  0.70456409  0.48599506     0.19530
C1064       C  0.87651002  0.69122573  0.50702204     0.24570
C1065       C  0.84795982  0.73559816  0.50600358    -0.23430
C1066       C  0.84741979  0.79396451  0.48366679     0.19470
F1067       F  0.82037964  0.83771524  0.48164687    -0.13380
F1068       F  0.87263325  0.86252071  0.44004816    -0.15750
F1069       F  0.87850256  0.63596517  0.52957824    -0.15750
F1070       F  0.93071235  0.66077550  0.48797605    -0.13380
C1071       C  0.64311287  0.79423268  0.46769400     0.24630
C1072       C  0.65376739  0.75399919  0.49754292    -0.23480
C1073       C  0.63594741  0.70673702  0.51349541     0.19530
C1074       C  0.60841812  0.69977125  0.49985908     0.24570
C1075       C  0.59773093  0.74007674  0.47003788    -0.23430
C1076       C  0.61560273  0.78723180  0.45403315     0.19470
F1077       F  0.60710384  0.82539097  0.42419681    -0.13380
F1078       F  0.65960433  0.83979671  0.45121132    -0.15750
F1079       F  0.59191684  0.65426103  0.51638758    -0.15750
F1080       F  0.64446851  0.66859303  0.54332831    -0.13380
C1081       C  0.86316926  0.79301686  0.62362855     0.24630
C1082       C  0.84698086  0.74349120  0.63917712    -0.23600
C1083       C  0.85874905  0.69996476  0.66708885     0.19530
C1084       C  0.88640389  0.70651441  0.67976996     0.24570
C1085       C  0.90264138  0.75591648  0.66414572    -0.23430
C1086       C  0.89082746  0.79957181  0.63631061     0.19470
F1087       F  0.90632332  0.84777199  0.62120613    -0.13380
F1088       F  0.85307761  0.83252776  0.59492927    -0.15750
F1089       F  0.89657043  0.66679434  0.70837239    -0.15750
F1090       F  0.84331313  0.65161371  0.68210666    -0.13380
C1091       C  0.65508267  0.72548829  0.32808391     0.24630
C1092       C  0.65095103  0.76393346  0.62894794    -0.23480
C1093       C  0.62094390  0.78269944  0.61773721     0.19530
C1094       C  0.59536643  0.76381233  0.63894649     0.24570
C1095       C  0.59943568  0.72628145  0.67169247    -0.23430
C1096       C  0.62948809  0.70687239  0.34936875     0.19470
F1097       F  0.63395707  0.67247173  0.38153314    -0.13380
F1098       F  0.68384041  0.70680317  0.33947908    -0.15750
F1099       F  0.56665909  0.78161837  0.62733377    -0.15750
F1100       F  0.61650719  0.81702078  0.58554528    -0.13380
C1101       C  0.72077984  0.99737695  0.63988214     0.24630
C1102       C  0.74760244  0.96010891  0.62169331    -0.23480
C1103       C  0.77675595  0.96190442  0.63345640     0.19530
C1104       C  0.77901499  0.99920019  0.32904654     0.24570
C1105       C  0.75219260  0.03647633  0.34723115    -0.23430
C1106       C  0.72303865  0.03467370  0.66880395     0.19470
F1107       F  0.69640478  0.06945666  0.35171066    -0.13380
F1108       F  0.69201894  0.99783992  0.62992900    -0.15750
F1109       F  0.80777513  0.99873610  0.33900204    -0.15750
F1110       F  0.80338831  0.92712108  0.61721542    -0.13380
C1111       C  0.72178105  0.53616195  0.64188791     0.24630
C1112       C  0.74859606  0.53331616  0.61643363    -0.23480
C1113       C  0.77671368  0.49463859  0.62613691     0.19530
C1114       C  0.77807093  0.46033042  0.66015662     0.24570
C1115       C  0.75125931  0.46320797  0.35228661    -0.23430
C1116       C  0.72313842  0.50186030  0.34257550     0.19470
F1117       F  0.69663133  0.50636208  0.36590677    -0.13380
F1118       F  0.69403951  0.57285786  0.63423808    -0.15750
F1119       F  0.80580877  0.42360661  0.66779871    -0.15750
F1120       F  0.80321765  0.49012258  0.60279950    -0.13380
O1121       O  0.77319804  0.58561676  0.89662152    -0.79860
O1122       O  0.76898443  0.87933445  0.91180924    -0.64550
O1123       O  0.76351331  0.69960451  0.92529583    -1.11150
C1124       C  0.68139347  0.76464038  0.84782668     1.07030
O1125       O  0.71783638  0.90803480  0.91990743    -0.77760
O1126       O  0.67560004  0.82900373  0.91726370    -0.65340
Ni1127     Ni  0.79841494  0.63082988  0.91927899     1.34870
C1128       C  0.67798571  0.77663576  0.93763747     0.85760
O1129       O  0.79811717  0.77837105  0.95120509    -0.78300
O1130       O  0.82373774  0.67425693  0.94362459    -0.88570
C1131       C  0.74482109  0.91521698  0.92650924     0.85340
O1132       O  0.81618163  0.66580569  0.87380499    -0.66770
O1133       O  0.68801686  0.82262365  0.84590249    -0.86060
C1134       C  0.82033803  0.72462331  0.86506643     0.86170
C1135       C  0.82089223  0.73112767  0.95553039     1.07740
H1136       H  0.75019899  0.79161344  0.85842051     0.39540
O1137       O  0.73913553  0.79170239  0.88244040    -1.08720
O1138       O  0.70198306  0.73209047  0.93588416    -0.65370
Ni1139     Ni  0.73040058  0.70570724  0.89494803     1.26350
O1140       O  0.80321926  0.77448519  0.87954878    -0.65600
O1141       O  0.69613537  0.71588098  0.86588381    -0.77890
C1142       C  0.74805401  0.57631852  0.91539727     0.85550
O1143       O  0.72379527  0.61817700  0.91023008    -0.65070
Ni1144     Ni  0.70469607  0.86343590  0.88210208     1.27450
Ni1145     Ni  0.76844555  0.78764504  0.91712374     1.26060
H1146       H  0.75500975  0.69412129  0.95030416     0.40090
O1147       O  0.52077730  0.08669199  0.89683319    -0.79860
O1148       O  0.51920710  0.37916932  0.91194650    -0.64550
O1149       O  0.51242525  0.20022648  0.92570748    -1.11150
C1150       C  0.92981348  0.26712286  0.84904403     1.07030
O1151       O  0.96811942  0.41028935  0.91935562    -0.77760
O1152       O  0.92520502  0.33300443  0.91786150    -0.65340
Ni1153     Ni  0.54687761  0.13061622  0.91895637     1.34870
C1154       C  0.92734729  0.28136672  0.93880661     0.85760
O1155       O  0.54796550  0.27717619  0.95108308    -0.78300
O1156       O  0.57303324  0.17286730  0.94279278    -0.88570
C1157       C  0.49520747  0.41607586  0.92626388     0.85340
O1158       O  0.56434218  0.16527200  0.87321095    -0.66770
O1159       O  0.93704568  0.32461772  0.84649263    -0.86060
C1160       C  0.56900139  0.22379742  0.86463062     0.86170
C1161       C  0.57064498  0.22946864  0.95488504     1.07740
H1162       H  0.99932634  0.29176441  0.85880176     0.39540
O1163       O  0.98832637  0.29272503  0.88287614    -1.08720
O1164       O  0.95096291  0.23578897  0.93710575    -0.65370
Ni1165     Ni  0.97883467  0.20748024  0.89600657     1.26350
O1166       O  0.55245017  0.27380124  0.87952169    -0.65600
O1167       O  0.94420882  0.21846744  0.86746971    -0.77890
C1168       C  0.99583852  0.07798407  0.91626165     0.85550
O1169       O  0.97164097  0.12057675  0.91190430    -0.65070
Ni1170     Ni  0.95440095  0.36550509  0.88211333     1.27450
Ni1171     Ni  0.51796040  0.28777323  0.91733563     1.26060
H1172       H  0.50418934  0.19484632  0.95081677     0.40090
O1173       O  0.53159182  0.58671602  0.71635823    -0.79860
O1174       O  0.52805027  0.87647742  0.72380310    -0.64550
O1175       O  0.51139810  0.70429725  0.75281448    -1.11150
C1176       C  0.92910362  0.76748268  0.01404062     1.07030
O1177       O  0.97889799  0.91030198  0.73882074    -0.77760
O1178       O  0.93521276  0.83188651  0.76226287    -0.65340
Ni1179     Ni  0.54531263  0.63151302  0.75358847     1.34870
C1180       C  0.93066036  0.77332401  0.77096482     0.85760
O1181       O  0.55549210  0.77858327  0.76823863    -0.78300
O1182       O  0.56266255  0.67241339  0.78920074    -0.88570
C1183       C  0.50385089  0.91906621  0.71944091     0.85340
O1184       O  0.57450556  0.66398758  0.71782623    -0.66770
O1185       O  0.92675384  0.82418909  0.02598575    -0.86060
C1186       C  0.57238685  0.71562681  0.03021809     0.86170
C1187       C  0.56989193  0.72990796  0.78664870     1.07740
H1188       H  0.99556377  0.80204353  0.01819006     0.39540
O1189       O  0.98729993  0.79674869  0.70996119    -1.08720
O1190       O  0.94728991  0.72324740  0.75622046    -0.65370
Ni1191     Ni  0.98175336  0.70921025  0.71837678     1.26350
O1192       O  0.54879194  0.76126933  0.69860369    -0.65600
O1193       O  0.95173524  0.71972946  0.01798213    -0.77890
C1194       C  0.00450171  0.58091299  0.70946902     0.85550
O1195       O  0.98050522  0.61781318  0.72379991    -0.65070
Ni1196     Ni  0.95285247  0.86642100  0.71658478     1.27450
Ni1197     Ni  0.52087793  0.78954944  0.73968497     1.26060
H1198       H  0.50040213  0.70526281  0.77689518     0.40090
O1199       O  0.78195684  0.08854250  0.71570261    -0.79860
O1200       O  0.77605822  0.37838619  0.72518286    -0.64550
O1201       O  0.76064739  0.20495650  0.75310896    -1.11150
C1202       C  0.67889416  0.26548828  0.01340440     1.07030
O1203       O  0.72667080  0.41106498  0.73883823    -0.77760
O1204       O  0.68378845  0.33077199  0.76187917    -0.65340
Ni1205     Ni  0.79508668  0.13320817  0.75349303     1.34870
C1206       C  0.67951348  0.27200428  0.77052580     0.85760
O1207       O  0.80368134  0.28076973  0.76960122    -0.78300
O1208       O  0.81176346  0.17408594  0.78967530    -0.88570
C1209       C  0.75180848  0.42026892  0.72001423     0.85340
O1210       O  0.82420411  0.16756951  0.71833010    -0.66770
O1211       O  0.67601450  0.32227857  0.02542513    -0.86060
C1212       C  0.82180484  0.21988180  0.03124352     0.86170
C1213       C  0.81840088  0.23206381  0.78771472     1.07740
H1214       H  0.74477654  0.30253964  0.01853310     0.39540
O1215       O  0.73629492  0.29702476  0.71021454    -1.08720
O1216       O  0.69654987  0.22217551  0.75592443    -0.65370
Ni1217     Ni  0.73135910  0.20899211  0.71839711     1.26350
O1218       O  0.79779447  0.26438171  0.69961330    -0.65600
O1219       O  0.70171110  0.21828712  0.01762024    -0.77890
C1220       C  0.75497507  0.08138613  0.70907318     0.85550
O1221       O  0.73080875  0.11731159  0.72373532    -0.65070
Ni1222     Ni  0.70139625  0.36576667  0.71631855     1.27450
Ni1223     Ni  0.76941309  0.29091462  0.74054310     1.26060
H1224       H  0.74957207  0.20510145  0.77711822     0.40090
C1225       C  0.85676760  0.20230014  0.83442521     0.24630
C1226       C  0.84600391  0.24277347  0.80470521    -0.23480
C1227       C  0.86369149  0.29039325  0.78892651     0.19530
C1228       C  0.89119225  0.29745688  0.80259821     0.24570
C1229       C  0.90199132  0.25690284  0.83228529    -0.23430
C1230       C  0.88424997  0.20939569  0.84811949     0.19470
F1231       F  0.89285015  0.17094349  0.87782182    -0.13380
F1232       F  0.84041526  0.15638015  0.85075062    -0.15750
F1233       F  0.90755283  0.34333040  0.78623208    -0.15750
F1234       F  0.85506947  0.32883202  0.75922819    -0.13380
C1235       C  0.59644990  0.29374544  0.81732692     0.24630
C1236       C  0.59654049  0.23429478  0.83861115    -0.23480
C1237       C  0.62470773  0.18842809  0.83850281     0.19530
C1238       C  0.65195866  0.20154696  0.81754238     0.24570
C1239       C  0.65188035  0.26106475  0.79630376    -0.23430
C1240       C  0.62368771  0.30686367  0.79636827     0.19470
F1241       F  0.62206557  0.36347758  0.77494366    -0.13380
F1242       F  0.56979020  0.33900363  0.81636127    -0.15750
F1243       F  0.67862326  0.15631585  0.81854308    -0.15750
F1244       F  0.62630417  0.13185533  0.85996000    -0.13380
C1245       C  0.90437180  0.23329701  0.66343225     0.24630
C1246       C  0.90029907  0.27060513  0.96395443    -0.23480
C1247       C  0.87027289  0.28959190  0.95282639     0.19530
C1248       C  0.84470151  0.27080558  0.97407335     0.24570
C1249       C  0.84883583  0.23261561  0.00661973    -0.23430
C1250       C  0.87881710  0.21424733  0.68460781     0.19470
F1251       F  0.88323793  0.18018739  0.71687414    -0.13380
F1252       F  0.93305817  0.21586543  0.67513409    -0.15750
F1253       F  0.81596498  0.28908846  0.96257737    -0.15750
F1254       F  0.86582007  0.32372897  0.92058663    -0.13380
C1255       C  0.63658446  0.20370615  0.67862181     0.24630
C1256       C  0.65279875  0.25319490  0.99641818    -0.23480
C1257       C  0.64104905  0.29677181  0.96851532     0.19530
C1258       C  0.61337413  0.29033299  0.95584348     0.24570
C1259       C  0.59710764  0.24097705  0.97146071    -0.23430
C1260       C  0.60890754  0.19725769  0.66594662     0.19470
F1261       F  0.59337927  0.14910159  0.68104085    -0.13380
F1262       F  0.64666991  0.16413480  0.70730368    -0.15750
F1263       F  0.60321021  0.33012139  0.92726287    -0.15750
F1264       F  0.65652020  0.34507138  0.95350277    -0.13380
C1265       C  0.97306911  0.04523811  0.97940483     0.24630
C1266       C  0.99706855  0.03466947  0.95043267    -0.23480
C1267       C  0.52382401  0.98731334  0.95611208     0.19530
C1268       C  0.52665190  0.95191834  0.98966620     0.24570
C1269       C  0.50264307  0.96245509  0.68529689    -0.23430
C1270       C  0.97589444  0.00983474  0.67962435     0.19470
F1271       F  0.95231221  0.02230898  0.70668044    -0.13380
F1272       F  0.94690784  0.09089164  0.64242126    -0.15750
F1273       F  0.55282182  0.90629857  0.99332679    -0.15750
F1274       F  0.54740990  0.97484562  0.92905984    -0.13380
C1275       C  0.52599588  0.45429926  0.97102605     0.24630
C1276       C  0.99810105  0.46065312  0.95480711    -0.23480
C1277       C  0.97201590  0.50571680  0.96879499     0.19530
C1278       C  0.97371341  0.54268502  0.99804098     0.24570
C1279       C  0.00160588  0.53633400  0.68092732    -0.23430
C1280       C  0.52769158  0.49127064  0.66693944     0.19470
F1281       F  0.55509077  0.48236534  0.68163228    -0.13380
F1282       F  0.55176821  0.41131725  0.95916216    -0.15750
F1283       F  0.94794258  0.58566579  0.00990489    -0.15750
F1284       F  0.94461731  0.51462685  0.95410056    -0.13380
C1285       C  0.87460129  0.80730122  0.79597123     0.24630
C1286       C  0.90312773  0.76285266  0.79694474    -0.23480
C1287       C  0.90367813  0.70455879  0.81932681     0.19530
C1288       C  0.87650972  0.69121887  0.84035284     0.24570
C1289       C  0.84795957  0.73559144  0.83933487    -0.23430
C1290       C  0.84741969  0.79395943  0.81699951     0.19470
F1291       F  0.82037956  0.83771052  0.81498029    -0.13380
F1292       F  0.87263338  0.86251885  0.77338308    -0.15750
F1293       F  0.87850208  0.63595679  0.86290785    -0.15750
F1294       F  0.93071221  0.66077000  0.82130735    -0.13380
C1295       C  0.64311149  0.79423705  0.80103096     0.24630
C1296       C  0.65376601  0.75400273  0.83087963    -0.23480
C1297       C  0.63594612  0.70673989  0.84683140     0.19530
C1298       C  0.60841718  0.69977368  0.83319437     0.24570
C1299       C  0.59773019  0.74007939  0.80337313    -0.23430
C1300       C  0.61560168  0.78723573  0.78736939     0.19470
F1301       F  0.60710290  0.82539560  0.75753323    -0.13380
F1302       F  0.65960275  0.83980201  0.78454906    -0.15750
F1303       F  0.59191611  0.65426253  0.84972213    -0.15750
F1304       F  0.64446705  0.66859524  0.87666416    -0.13380
C1305       C  0.86317733  0.79299459  0.95695140     0.24630
C1306       C  0.84698616  0.74347629  0.97250464    -0.23600
C1307       C  0.85875168  0.69995680  0.00042036     0.19530
C1308       C  0.88640605  0.70650799  0.01310196     0.24570
C1309       C  0.90264543  0.75590492  0.99747445    -0.23430
C1310       C  0.89083475  0.79955191  0.96963443     0.19470
F1311       F  0.90633286  0.84774625  0.95452642    -0.13380
F1312       F  0.85308879  0.83249631  0.92824745    -0.15750
F1313       F  0.89657028  0.66679497  0.04170792    -0.15750
F1314       F  0.84331347  0.65161165  0.01544177    -0.13380
C1315       C  0.65508280  0.72548971  0.66141746     0.24630
C1316       C  0.65095298  0.76393259  0.96228457    -0.23480
C1317       C  0.62094606  0.78269826  0.95107324     0.19530
C1318       C  0.59536848  0.76381022  0.97228174     0.24570
C1319       C  0.59943733  0.72627906  0.00502772    -0.23430
C1320       C  0.62948826  0.70687433  0.68270259     0.19470
F1321       F  0.63395731  0.67247438  0.71486715    -0.13380
F1322       F  0.68384060  0.70680486  0.67281254    -0.15750
F1323       F  0.56666141  0.78161554  0.96066824    -0.15750
F1324       F  0.61650973  0.81701988  0.91888130    -0.13380
C1325       C  0.72078768  0.99744363  0.97317971     0.24630
C1326       C  0.74760785  0.96010370  0.95502785    -0.23480
C1327       C  0.77675507  0.96183028  0.96682801     0.19530
C1328       C  0.77901501  0.99920028  0.66237961     0.24570
C1329       C  0.75219263  0.03647596  0.68056447    -0.23430
C1330       C  0.72304234  0.03474367  0.00210163     0.19470
F1331       F  0.69640474  0.06945528  0.68504462    -0.13380
F1332       F  0.69203342  0.99797970  0.96318720    -0.15750
F1333       F  0.80777521  0.99873663  0.67233481    -0.15750
F1334       F  0.80338447  0.92696965  0.95062666    -0.13380
C1335       C  0.72178004  0.53616072  0.97522219     0.24630
C1336       C  0.74859489  0.53331428  0.94976761    -0.23480
C1337       C  0.77671271  0.49463790  0.95947112     0.19530
C1338       C  0.77807028  0.46033139  0.99349125     0.24570
C1339       C  0.75125968  0.46320752  0.68561967    -0.23430
C1340       C  0.72313889  0.50186081  0.67590891     0.19470
F1341       F  0.69663199  0.50636357  0.69924052    -0.13380
F1342       F  0.69403832  0.57285562  0.96757221    -0.15750
F1343       F  0.80580832  0.42360882  0.00113358    -0.15750
F1344       F  0.80321658  0.49012154  0.93613353    -0.13380
loop_ 
_geom_bond_atom_site_label_1 
_geom_bond_atom_site_label_2 
_geom_bond_distance 
_geom_bond_site_symmetry_2 
_ccdc_geom_bond_type 
O1           Ni7   1.892       .  S
O1           C22   1.270       .  A
O2          Ni25   1.900       .  S
O2           C11   1.269       .  A
O3           Ni7   1.892       .  S
O3          Ni25   1.874       .  S
O3          Ni19   1.930       .  S
O3           H26   0.967       .  S
C4           O21   1.280       .  A
C4           O13   1.284       .  A
C4          C176   1.495       .  S
O5          Ni24   1.951       .  S
O5           C11   1.277       .  A
O6          Ni24   1.906       .  S
O6            C8   1.266       .  A
Ni7          O10   1.908       .  S
Ni7          O12   1.920       .  S
C8           O18   1.263       .  A
C8          C196   1.460       .  S
O9          Ni25   1.904       .  S
O9           C15   1.277       .  A
O10          C15   1.275       .  A
C11         C206   1.504       .  S
O12          C14   1.276       .  A
O13         Ni24   1.938       .  S
C14          O20   1.277       .  A
C14         C169   1.491       .  S
C15         C186   1.448       .  S
H16          O17   0.965       .  S
O17         Ni25   1.921       .  S
O17         Ni19   1.902       .  S
O17         Ni24   1.912       .  S
O18         Ni19   1.899       .  S
Ni19         O23   1.920       .  S
Ni19         O21   1.931       .  S
O20         Ni25   1.937       .  S
C22          O23   1.265       .  A
C22         C216   1.498       .  S
O27         Ni33   1.893       .  S
O27         C720   1.270   1_455  A
O28         Ni51   1.900       .  S
O28          C37   1.269   1_455  A
O29         Ni33   1.893       .  S
O29         Ni51   1.872       .  S
O29        Ni717   1.928   1_455  S
O29          H52   0.967       .  S
C30          O47   1.280       .  A
C30          O39   1.284       .  A
C30         C109   1.496       .  S
O31         Ni50   1.949       .  S
O31         C709   1.277       .  A
O32         Ni50   1.904       .  S
O32          C34   1.266       .  A
Ni33         O36   1.909       .  S
Ni33         O38   1.921       .  S
C34          O44   1.264       .  A
C34         C126   1.459       .  S
O35         Ni51   1.903       .  S
O35          C41   1.277       .  A
O36          C41   1.276       .  A
C37         O703   1.277       .  A
C37         C828   1.501       .  S
O38          C40   1.276       .  A
O39         Ni50   1.938       .  S
C40          O46   1.276       .  A
C40         C116   1.491       .  S
C41         C139   1.448       .  S
H42          O43   0.966       .  S
O43         Ni45   1.902       .  S
O43         Ni50   1.912       .  S
O43        Ni723   1.923       .  S
O44         Ni45   1.901       .  S
Ni45         O49   1.920       .  S
Ni45         O47   1.930       .  S
Ni45        O701   1.928       .  S
O46         Ni51   1.935       .  S
C48          O49   1.265       .  A
C48         O699   1.270       .  A
C48         C146   1.496       .  S
Ni51        O715   1.923   1_455  S
O53         Ni59   1.949       .  S
O53         C746   1.277       .  A
O54         Ni77   1.920       .  S
O54          C63   1.265       .  A
O55         Ni59   1.912       .  S
O55         Ni77   1.902       .  S
O55        Ni743   1.923   1_455  S
O55          H78   0.966       .  S
C56          O73   1.277       .  A
C56          O65   1.275       .  A
C56         C189   1.448       .  S
O57         Ni76   1.893       .  S
O57         C735   1.270       .  A
O58         Ni76   1.921       .  S
O58          C60   1.276       .  A
Ni59         O62   1.938       .  S
Ni59         O64   1.904       .  S
C60          O70   1.276       .  A
C60         C166   1.490       .  S
O61         Ni77   1.930       .  S
O61          C67   1.280       .  A
O62          C67   1.284       .  A
C63         O729   1.270   1_455  A
C63         C149   1.496       .  S
O64         C514   1.266       .  A
O65        Ni300   1.909       .  S
C66         O288   1.266       .  A
C66         O296   1.264       .  A
C66         C199   1.459       .  S
C67         C179   1.496       .  S
H68         O293   0.967       .  S
O69         Ni71   1.872       .  S
O69         Ni76   1.893       .  S
O69        Ni749   1.928       .  S
O69         H516   0.967       .  S
O70         Ni71   1.935       .  S
Ni71         O75   1.900       .  S
Ni71        O521   1.904       .  S
Ni71        O727   1.923       .  S
O72         Ni77   1.902       .  S
O72         C514   1.264       .  A
O73        Ni295   1.904       .  S
C74          O75   1.269       .  A
C74         O725   1.277       .  A
C74         C159   1.501       .  S
Ni76        O513   1.909       .  S
Ni77        O741   1.928   1_455  S
O79         Ni85   1.951       .  S
O79         C100   1.277       .  A
O80        Ni103   1.920       .  S
O80          C89   1.265       .  A
O81         Ni85   1.912       .  S
O81        Ni103   1.902       .  S
O81         Ni97   1.921       .  S
O81         H104   0.965       .  S
C82          O99   1.277       .  A
C82          O91   1.275       .  A
C82         C136   1.448       .  S
O83        Ni102   1.892       .  S
O83          C89   1.270       .  A
O84        Ni102   1.920       .  S
O84          C86   1.276       .  A
Ni85         O88   1.938       .  S
Ni85         O90   1.906       .  S
C86          O96   1.277       .  A
C86         C119   1.492       .  S
O87        Ni103   1.931       .  S
O87          C93   1.280       .  A
O88          C93   1.284       .  A
C89         C219   1.498       .  S
O90         C540   1.266       .  A
O91        Ni326   1.909       .  S
C92         O314   1.266       .  A
C92         O322   1.263       .  A
C92         C129   1.459       .  S
C93         C106   1.495       .  S
H94         O319   0.967       .  S
O95        Ni103   1.930       .  S
O95         Ni97   1.874       .  S
O95        Ni102   1.892       .  S
O95         H542   0.967       .  S
O96         Ni97   1.937       .  S
Ni97        O101   1.900       .  S
Ni97        O547   1.904       .  S
O98        Ni103   1.899       .  S
O98         C540   1.263       .  A
O99        Ni321   1.904       .  S
C100        O101   1.269       .  A
C100        C209   1.504       .  S
Ni102       O539   1.909       .  S
C105        C106   1.406       .  A
C105        C110   1.404       .  A
C105        F112   1.358       .  S
C106        C107   1.415       .  A
C107        C108   1.404       .  A
C107        F114   1.358       .  S
C108        C109   1.407       .  A
C108        F113   1.358       .  S
C109        C110   1.415       .  A
C110        F111   1.358       .  S
C115        C116   1.408       .  A
C115        C120   1.404       .  A
C115        F122   1.358       .  S
C116        C117   1.411       .  A
C117        C118   1.404       .  A
C117        F124   1.358       .  S
C118        C119   1.408       .  A
C118        F123   1.358       .  S
C119        C120   1.411       .  A
C120        F121   1.358       .  S
C125        C130   1.390   1_556  A
C125        C574   1.403       .  A
C125        F132   1.358   1_556  S
C126        C127   1.406       .  A
C126        C349   1.403       .  A
C127        C128   1.390       .  A
C127        F134   1.359       .  S
C128        C129   1.403       .  A
C128        F133   1.358       .  S
C129        C354   1.406       .  A
C130        C577   1.406       .  A
C130        F131   1.359       .  S
C135        C140   1.390   1_554  A
C135        C584   1.403   1_554  A
C135        F142   1.358       .  S
C136        C137   1.401       .  A
C136        C359   1.403       .  A
C137        C138   1.390       .  A
C137        F144   1.358       .  S
C138        C139   1.403       .  A
C138        F143   1.358       .  S
C139        C364   1.401       .  A
C140        C587   1.401       .  A
C140        F141   1.358   1_556  S
C145        C146   1.414       .  A
C145        C374   1.403       .  A
C145        F376   1.357       .  S
C146        C819   1.407   1_545  A
C147        C148   1.403       .  A
C147        C818   1.407   1_465  A
C147        F154   1.358       .  S
C148        C373   1.414       .  A
C148        F153   1.357       .  S
C149        C596   1.414   1_554  A
C149        C822   1.407   1_465  A
C150        C593   1.403   1_554  A
C150        C821   1.407   1_545  A
C150        F151   1.358       .  S
F152        C593   1.357       .  S
C155        C828   1.412   1_455  A
C155        C384   1.404       .  A
C155        F162   1.355       .  S
C156        C709   1.501       .  S
C156        C157   1.411       .  A
C156        C827   1.412       .  A
C157        C158   1.404       .  A
C157        F164   1.358       .  S
C158        C383   1.412       .  A
C158        F163   1.355       .  S
C159        C606   1.412   1_554  A
C159        C832   1.411       .  A
C160        C603   1.404   1_554  A
C160        C831   1.411       .  A
C160        F161   1.358       .  S
C165        C166   1.411       .  A
C165        C170   1.404       .  A
C165        F172   1.358       .  S
C166        C167   1.407       .  A
C167        C168   1.404       .  A
C167        F174   1.358       .  S
C168        C169   1.411       .  A
C168        F173   1.358       .  S
C169        C170   1.407       .  A
C170        F171   1.358       .  S
C175        C176   1.406       .  A
C175        C180   1.404       .  A
C175        F182   1.358       .  S
C176        C177   1.414       .  A
C177        C178   1.404       .  A
C177        F184   1.358       .  S
C178        C179   1.406       .  A
C178        F183   1.358       .  S
C179        C180   1.415       .  A
C180        F181   1.358       .  S
C185        C186   1.403       .  A
C185        C190   1.390       .  A
C185        F192   1.358       .  S
C186        C187   1.401       .  A
C187        C188   1.390       .  A
C187        F194   1.358       .  S
C188        C189   1.403       .  A
C188        F193   1.358       .  S
C189        C190   1.401       .  A
C190        F191   1.358       .  S
C195        C200   1.390   1_556  A
C195        C644   1.404       .  A
C195        F202   1.358   1_556  S
C196        C197   1.406       .  A
C196        C419   1.404       .  A
C197        C198   1.390       .  A
C197        F204   1.359       .  S
C198        C199   1.403       .  A
C198        F203   1.358       .  S
C199        C424   1.406       .  A
C200        C647   1.406       .  A
C200        F201   1.359       .  S
C205        C206   1.413       .  A
C205        C210   1.405   1_565  A
C205        F212   1.358       .  S
C206        C207   1.412       .  A
C207        C432   1.405       .  A
C207        F214   1.356       .  S
C208        C209   1.413   1_566  A
C208        C655   1.405       .  A
C208        F213   1.358   1_556  S
C209        C658   1.412       .  A
C210        C433   1.412       .  A
C210        F435   1.356       .  S
F211        C658   1.356       .  S
C215        C216   1.414       .  A
C215        C444   1.403       .  A
C215        F222   1.358       .  S
C216        C217   1.409       .  A
C217        C218   1.403       .  A
C217        F224   1.358       .  S
C218        C443   1.414       .  A
C218        F223   1.358       .  S
C219        C220   1.409       .  A
C219        C666   1.414   1_554  A
C220        C663   1.403   1_554  A
C220        F221   1.358       .  S
O225       Ni231   1.892       .  S
O225        C246   1.270       .  A
O226       Ni249   1.900       .  S
O226        C235   1.269       .  A
O227       Ni231   1.892       .  S
O227       Ni249   1.874       .  S
O227       Ni243   1.930       .  S
O227        H250   0.967       .  S
C228        O245   1.280       .  A
C228        O237   1.284       .  A
C228        C400   1.495       .  S
O229       Ni248   1.951       .  S
O229        C235   1.277       .  A
O230       Ni248   1.906       .  S
O230        C232   1.266       .  A
Ni231       O234   1.908       .  S
Ni231       O236   1.920       .  S
C232        O242   1.263       .  A
C232        C420   1.460       .  S
O233       Ni249   1.904       .  S
O233        C239   1.277       .  A
O234        C239   1.275       .  A
C235        C430   1.504       .  S
O236        C238   1.276       .  A
O237       Ni248   1.938       .  S
C238        O244   1.277       .  A
C238        C393   1.491       .  S
C239        C410   1.448       .  S
H240        O241   0.965       .  S
O241       Ni249   1.921       .  S
O241       Ni243   1.902       .  S
O241       Ni248   1.912       .  S
O242       Ni243   1.899       .  S
Ni243       O247   1.920       .  S
Ni243       O245   1.931       .  S
O244       Ni249   1.937       .  S
C246        O247   1.265       .  A
C246        C440   1.498       .  S
O251       Ni257   1.893       .  S
O251        C944   1.270   1_455  A
O252       Ni275   1.900       .  S
O252        C261   1.269   1_455  A
O253       Ni257   1.893       .  S
O253       Ni275   1.872       .  S
O253       Ni941   1.928   1_455  S
O253        H276   0.967       .  S
C254        O271   1.280       .  A
C254        O263   1.284       .  A
C254        C333   1.496       .  S
O255       Ni274   1.949       .  S
O255        C933   1.277       .  A
O256       Ni274   1.904       .  S
O256        C258   1.266       .  A
Ni257       O260   1.909       .  S
Ni257       O262   1.921       .  S
C258        O268   1.264       .  A
C258        C350   1.459       .  S
O259       Ni275   1.903       .  S
O259        C265   1.277       .  A
O260        C265   1.276       .  A
C261        O927   1.277       .  A
C261       C1052   1.501       .  S
O262        C264   1.276       .  A
O263       Ni274   1.938       .  S
C264        O270   1.276       .  A
C264        C340   1.491       .  S
C265        C363   1.448       .  S
H266        O267   0.966       .  S
O267       Ni947   1.923       .  S
O267       Ni269   1.902       .  S
O267       Ni274   1.912       .  S
O268       Ni269   1.901       .  S
Ni269       O273   1.920       .  S
Ni269       O271   1.930       .  S
Ni269       O925   1.928       .  S
O270       Ni275   1.935       .  S
C272        O923   1.270       .  A
C272        O273   1.265       .  A
C272        C370   1.496       .  S
Ni275       O939   1.923   1_455  S
O277       Ni283   1.949       .  S
O277        C970   1.277       .  A
O278       Ni301   1.920       .  S
O278        C287   1.265       .  A
O279       Ni283   1.912       .  S
O279       Ni301   1.902       .  S
O279       Ni967   1.923   1_455  S
O279        H302   0.966       .  S
C280        O297   1.277       .  A
C280        O289   1.275       .  A
C280        C413   1.448       .  S
O281       Ni300   1.893       .  S
O281        C959   1.270       .  A
O282       Ni300   1.921       .  S
O282        C284   1.276       .  A
Ni283       O286   1.938       .  S
Ni283       O288   1.904       .  S
C284        O294   1.276       .  A
C284        C390   1.490       .  S
O285       Ni301   1.930       .  S
O285        C291   1.280       .  A
O286        C291   1.284       .  A
C287        O953   1.270   1_455  A
C287        C373   1.496       .  S
O289       Ni524   1.909       .  S
C290        O512   1.266       .  A
C290        O520   1.264       .  A
C290        C423   1.459       .  S
C291        C403   1.496       .  S
H292        O517   0.967       .  S
O293       Ni973   1.928       .  S
O293       Ni295   1.872       .  S
O293       Ni300   1.893       .  S
O294       Ni295   1.935       .  S
Ni295       O299   1.900       .  S
Ni295       O951   1.923       .  S
O296       Ni301   1.902       .  S
O297       Ni519   1.904       .  S
C298        O949   1.277       .  A
C298        O299   1.269       .  A
C298        C383   1.501       .  S
Ni301       O965   1.928   1_455  S
O303       Ni309   1.951       .  S
O303        C324   1.277       .  A
O304       Ni327   1.920       .  S
O304        C313   1.265       .  A
O305       Ni309   1.912       .  S
O305       Ni327   1.902       .  S
O305       Ni321   1.921       .  S
O305        H328   0.965       .  S
C306        O323   1.277       .  A
C306        O315   1.275       .  A
C306        C360   1.448       .  S
O307       Ni326   1.892       .  S
O307        C313   1.270       .  A
O308       Ni326   1.920       .  S
O308        C310   1.276       .  A
Ni309       O312   1.938       .  S
Ni309       O314   1.906       .  S
C310        O320   1.277       .  A
C310        C343   1.492       .  S
O311       Ni327   1.931       .  S
O311        C317   1.280       .  A
O312        C317   1.284       .  A
C313        C443   1.498       .  S
O315       Ni550   1.909       .  S
C316        O538   1.266       .  A
C316        O546   1.263       .  A
C316        C353   1.459       .  S
C317        C330   1.495       .  S
H318        O543   0.967       .  S
O319       Ni327   1.930       .  S
O319       Ni321   1.874       .  S
O319       Ni326   1.892       .  S
O320       Ni321   1.937       .  S
Ni321       O325   1.900       .  S
O322       Ni327   1.899       .  S
O323       Ni545   1.904       .  S
C324        O325   1.269       .  A
C324        C433   1.504       .  S
C329        C330   1.406       .  A
C329        C334   1.404       .  A
C329        F336   1.358       .  S
C330        C331   1.415       .  A
C331        C332   1.404       .  A
C331        F338   1.358       .  S
C332        C333   1.407       .  A
C332        F337   1.358       .  S
C333        C334   1.415       .  A
C334        F335   1.358       .  S
C339        C340   1.408       .  A
C339        C344   1.404       .  A
C339        F346   1.358       .  S
C340        C341   1.411       .  A
C341        C342   1.404       .  A
C341        F348   1.358       .  S
C342        C343   1.408       .  A
C342        F347   1.358       .  S
C343        C344   1.411       .  A
C344        F345   1.358       .  S
C349        C354   1.390       .  A
C349        F356   1.358       .  S
C350        C573   1.403       .  A
C350        C351   1.406       .  A
C351        C352   1.390       .  A
C351        F358   1.359       .  S
C352        C353   1.403       .  A
C352        F357   1.358       .  S
C353        C578   1.406       .  A
C354        F355   1.359       .  S
C359        C364   1.390       .  A
C359        F366   1.358       .  S
C360        C583   1.403       .  A
C360        C361   1.401       .  A
C361        C362   1.390       .  A
C361        F368   1.358       .  S
C362        C363   1.403       .  A
C362        F367   1.358       .  S
C363        C588   1.401       .  A
C364        F365   1.358       .  S
C369        C370   1.414       .  A
C369        C598   1.403       .  A
C369        F600   1.357       .  S
C370       C1043   1.407   1_545  A
C371       C1042   1.407   1_465  A
C371        C372   1.403       .  A
C371        F378   1.358       .  S
C372        C597   1.414       .  A
C372        F377   1.357       .  S
C373       C1046   1.407   1_465  A
C374       C1045   1.407   1_545  A
C374        F375   1.358       .  S
C379       C1052   1.412   1_455  A
C379        C608   1.404       .  A
C379        F386   1.355       .  S
C380        C933   1.501       .  S
C380       C1051   1.412       .  A
C380        C381   1.411       .  A
C381        C382   1.404       .  A
C381        F388   1.358       .  S
C382        C607   1.412       .  A
C382        F387   1.355       .  S
C383       C1056   1.411       .  A
C384       C1055   1.411       .  A
C384        F385   1.358       .  S
C389        C390   1.411       .  A
C389        C394   1.404       .  A
C389        F396   1.358       .  S
C390        C391   1.407       .  A
C391        C392   1.404       .  A
C391        F398   1.358       .  S
C392        C393   1.411       .  A
C392        F397   1.358       .  S
C393        C394   1.407       .  A
C394        F395   1.358       .  S
C399        C400   1.406       .  A
C399        C404   1.404       .  A
C399        F406   1.358       .  S
C400        C401   1.414       .  A
C401        C402   1.404       .  A
C401        F408   1.358       .  S
C402        C403   1.406       .  A
C402        F407   1.358       .  S
C403        C404   1.415       .  A
C404        F405   1.358       .  S
C409        C410   1.403       .  A
C409        C414   1.390       .  A
C409        F416   1.358       .  S
C410        C411   1.401       .  A
C411        C412   1.390       .  A
C411        F418   1.358       .  S
C412        C413   1.403       .  A
C412        F417   1.358       .  S
C413        C414   1.401       .  A
C414        F415   1.358       .  S
C419        C424   1.390       .  A
C419        F426   1.358       .  S
C420        C643   1.404       .  A
C420        C421   1.406       .  A
C421        C422   1.390       .  A
C421        F428   1.359       .  S
C422        C423   1.403       .  A
C422        F427   1.358       .  S
C423        C648   1.406       .  A
C424        F425   1.359       .  S
C429        C430   1.413       .  A
C429        C434   1.405   1_565  A
C429        F436   1.358       .  S
C430        C431   1.412       .  A
C431        C656   1.405       .  A
C431        F438   1.356       .  S
C432        C433   1.413   1_565  A
C432        F437   1.358       .  S
C434        C657   1.412       .  A
C434        F659   1.356       .  S
C439        C440   1.414       .  A
C439        C668   1.403       .  A
C439        F446   1.358       .  S
C440        C441   1.409       .  A
C441        C442   1.403       .  A
C441        F448   1.358       .  S
C442        C667   1.414       .  A
C442        F447   1.358       .  S
C443        C444   1.409       .  A
C444        F445   1.358       .  S
O449       Ni455   1.892       .  S
O449        C470   1.270       .  A
O450       Ni473   1.900       .  S
O450        C459   1.269       .  A
O451       Ni455   1.892       .  S
O451       Ni473   1.874       .  S
O451       Ni467   1.930       .  S
O451        H474   0.967       .  S
C452        O469   1.280       .  A
C452        O461   1.284       .  A
C452        C624   1.495       .  S
O453       Ni472   1.951       .  S
O453        C459   1.277       .  A
O454       Ni472   1.906       .  S
O454        C456   1.266       .  A
Ni455       O458   1.908       .  S
Ni455       O460   1.920       .  S
C456        O466   1.263       .  A
C456        C644   1.459       .  S
O457       Ni473   1.904       .  S
O457        C463   1.277       .  A
O458        C463   1.275       .  A
C459        C654   1.504       .  S
O460        C462   1.276       .  A
O461       Ni472   1.938       .  S
C462        O468   1.277       .  A
C462        C617   1.491       .  S
C463        C634   1.448       .  S
H464        O465   0.965       .  S
O465       Ni473   1.921       .  S
O465       Ni467   1.902       .  S
O465       Ni472   1.912       .  S
O466       Ni467   1.899       .  S
Ni467       O471   1.920       .  S
Ni467       O469   1.931       .  S
O468       Ni473   1.937       .  S
C470        O471   1.265       .  A
C470        C664   1.498       .  S
O475       Ni481   1.893       .  S
O475       C1168   1.270   1_455  A
O476       Ni499   1.900       .  S
O476        C485   1.269   1_455  A
O477       Ni481   1.893       .  S
O477       Ni499   1.872       .  S
O477      Ni1165   1.928   1_455  S
O477        H500   0.967       .  S
C478        O495   1.280       .  A
C478        O487   1.284       .  A
C478        C557   1.496       .  S
O479       Ni498   1.949       .  S
O479       C1157   1.277       .  A
O480       Ni498   1.904       .  S
O480        C482   1.266       .  A
Ni481       O484   1.909       .  S
Ni481       O486   1.921       .  S
C482        O492   1.264       .  A
C482        C574   1.459       .  S
O483       Ni499   1.903       .  S
O483        C489   1.277       .  A
O484        C489   1.276       .  A
C485       O1151   1.277       .  A
C485       C1276   1.501       .  S
O486        C488   1.276       .  A
O487       Ni498   1.938       .  S
C488        O494   1.276       .  A
C488        C564   1.491       .  S
C489        C587   1.448       .  S
H490        O491   0.966       .  S
O491      Ni1171   1.923       .  S
O491       Ni493   1.902       .  S
O491       Ni498   1.912       .  S
O492       Ni493   1.901       .  S
Ni493       O497   1.920       .  S
Ni493       O495   1.930       .  S
Ni493      O1149   1.928       .  S
O494       Ni499   1.935       .  S
C496       O1147   1.270       .  A
C496        O497   1.265       .  A
C496        C594   1.496       .  S
Ni499      O1163   1.923   1_455  S
O501       Ni507   1.949       .  S
O501       C1194   1.277       .  A
O502       Ni525   1.920       .  S
O502        C511   1.265       .  A
O503       Ni507   1.912       .  S
O503       Ni525   1.902       .  S
O503      Ni1191   1.923   1_455  S
O503        H526   0.966       .  S
C504        O521   1.277       .  A
C504        O513   1.275       .  A
C504        C637   1.448   1_554  S
O505       Ni524   1.893       .  S
O505       C1183   1.270       .  A
O506       Ni524   1.921       .  S
O506        C508   1.276       .  A
Ni507       O510   1.938       .  S
Ni507       O512   1.904       .  S
C508        O518   1.276       .  A
C508        C614   1.490       .  S
O509       Ni525   1.930       .  S
O509        C515   1.280       .  A
O510        C515   1.284       .  A
C511       O1177   1.270   1_455  A
C511        C597   1.496       .  S
C514        C647   1.459       .  S
C515        C627   1.496       .  S
O517      Ni1197   1.928       .  S
O517       Ni519   1.872       .  S
O517       Ni524   1.893       .  S
O518       Ni519   1.935       .  S
Ni519       O523   1.900       .  S
Ni519      O1175   1.923       .  S
O520       Ni525   1.902       .  S
C522       O1173   1.277       .  A
C522        O523   1.269       .  A
C522        C607   1.501       .  S
Ni525      O1189   1.928   1_455  S
O527       Ni533   1.951       .  S
O527        C548   1.277       .  A
O528       Ni551   1.920       .  S
O528        C537   1.265       .  A
O529       Ni533   1.912       .  S
O529       Ni551   1.902       .  S
O529       Ni545   1.921       .  S
O529        H552   0.965       .  S
C530        O547   1.277       .  A
C530        O539   1.275       .  A
C530        C584   1.448   1_554  S
O531       Ni550   1.892       .  S
O531        C537   1.270       .  A
O532       Ni550   1.920       .  S
O532        C534   1.276       .  A
Ni533       O536   1.938       .  S
Ni533       O538   1.906       .  S
C534        O544   1.277       .  A
C534        C567   1.492       .  S
O535       Ni551   1.931       .  S
O535        C541   1.280       .  A
O536        C541   1.284       .  A
C537        C667   1.498       .  S
C540        C577   1.459       .  S
C541        C554   1.495       .  S
O543       Ni551   1.930       .  S
O543       Ni545   1.874       .  S
O543       Ni550   1.892       .  S
O544       Ni545   1.937       .  S
Ni545       O549   1.900       .  S
O546       Ni551   1.899       .  S
C548        O549   1.269       .  A
C548        C657   1.504       .  S
C553        C554   1.406       .  A
C553        C558   1.404       .  A
C553        F560   1.358       .  S
C554        C555   1.415       .  A
C555        C556   1.404       .  A
C555        F562   1.358       .  S
C556        C557   1.407       .  A
C556        F561   1.358       .  S
C557        C558   1.415       .  A
C558        F559   1.358       .  S
C563        C564   1.408       .  A
C563        C568   1.404       .  A
C563        F570   1.358       .  S
C564        C565   1.411       .  A
C565        C566   1.404       .  A
C565        F572   1.358       .  S
C566        C567   1.408       .  A
C566        F571   1.358       .  S
C567        C568   1.411       .  A
C568        F569   1.358       .  S
C573        C578   1.390       .  A
C573        F580   1.358       .  S
C574        C575   1.406       .  A
C575        C576   1.390       .  A
C575        F582   1.359       .  S
C576        C577   1.403   1_556  A
C576        F581   1.358       .  S
C578        F579   1.359       .  S
C583        C588   1.390       .  A
C583        F590   1.358       .  S
C584        C585   1.401       .  A
C585        C586   1.390       .  A
C585        F592   1.358       .  S
C586        C587   1.403       .  A
C586        F591   1.358       .  S
C588        F589   1.358       .  S
C593        C594   1.414       .  A
C594       C1267   1.407   1_545  A
C595       C1266   1.407   1_465  A
C595        C596   1.403       .  A
C595        F602   1.358       .  S
C596        F601   1.357       .  S
C597       C1270   1.407   1_465  A
C598       C1269   1.407   1_545  A
C598        F599   1.358       .  S
C603       C1276   1.412   1_455  A
C603        F610   1.355       .  S
C604       C1157   1.501       .  S
C604       C1275   1.412       .  A
C604        C605   1.411       .  A
C605        C606   1.404       .  A
C605        F612   1.358       .  S
C606        F611   1.355   1_556  S
C607       C1280   1.411       .  A
C608       C1279   1.411       .  A
C608        F609   1.358       .  S
C613        C614   1.411       .  A
C613        C618   1.404       .  A
C613        F620   1.358       .  S
C614        C615   1.407       .  A
C615        C616   1.404       .  A
C615        F622   1.358       .  S
C616        C617   1.411       .  A
C616        F621   1.358       .  S
C617        C618   1.407       .  A
C618        F619   1.358       .  S
C623        C624   1.406       .  A
C623        C628   1.404       .  A
C623        F630   1.358       .  S
C624        C625   1.414       .  A
C625        C626   1.404       .  A
C625        F632   1.358       .  S
C626        C627   1.406       .  A
C626        F631   1.358       .  S
C627        C628   1.415       .  A
C628        F629   1.358       .  S
C633        C634   1.403       .  A
C633        C638   1.390       .  A
C633        F640   1.358       .  S
C634        C635   1.401   1_556  A
C635        C636   1.390       .  A
C635        F642   1.358       .  S
C636        C637   1.403   1_554  A
C636        F641   1.358       .  S
C637        C638   1.401       .  A
C638        F639   1.358       .  S
C643        C648   1.390       .  A
C643        F650   1.358       .  S
C644        C645   1.406       .  A
C645        C646   1.390       .  A
C645        F652   1.359       .  S
C646        C647   1.403   1_556  A
C646        F651   1.358       .  S
C648        F649   1.359       .  S
C653        C654   1.413       .  A
C653        C658   1.405   1_566  A
C653        F660   1.358       .  S
C654        C655   1.412       .  A
C655        F662   1.356       .  S
C656        C657   1.413   1_565  A
C656        F661   1.358       .  S
C663        C664   1.414       .  A
C663        F670   1.358       .  S
C664        C665   1.409       .  A
C665        C666   1.403       .  A
C665        F672   1.358       .  S
C666        F671   1.358   1_556  S
C667        C668   1.409       .  A
C668        F669   1.358       .  S
O673       Ni679   1.892       .  S
O673        C694   1.270       .  A
O674       Ni697   1.900       .  S
O674        C683   1.269       .  A
O675       Ni679   1.892       .  S
O675       Ni697   1.874       .  S
O675       Ni691   1.930       .  S
O675        H698   0.967       .  S
C676        O693   1.280       .  A
C676        O685   1.284       .  A
C676        C848   1.495       .  S
O677       Ni696   1.951       .  S
O677        C683   1.277       .  A
O678       Ni696   1.906       .  S
O678        C680   1.266       .  A
Ni679       O682   1.908       .  S
Ni679       O684   1.920       .  S
C680        O690   1.263       .  A
C680        C868   1.460       .  S
O681       Ni697   1.904       .  S
O681        C687   1.277       .  A
O682        C687   1.275       .  A
C683        C878   1.504       .  S
O684        C686   1.276       .  A
O685       Ni696   1.938       .  S
C686        O692   1.277       .  A
C686        C841   1.491       .  S
C687        C858   1.448       .  S
H688        O689   0.965       .  S
O689       Ni697   1.921       .  S
O689       Ni691   1.902       .  S
O689       Ni696   1.912       .  S
O690       Ni691   1.899       .  S
Ni691       O695   1.920       .  S
Ni691       O693   1.931       .  S
O692       Ni697   1.937       .  S
C694        O695   1.265       .  A
C694        C888   1.498       .  S
O699       Ni705   1.893       .  S
O700       Ni723   1.900       .  S
O700        C709   1.269       .  A
O701       Ni705   1.893       .  S
O701       Ni723   1.872       .  S
O701        H724   0.967       .  S
C702        O719   1.280       .  A
C702        O711   1.284       .  A
C702        C781   1.496       .  S
O703       Ni722   1.949       .  S
O704       Ni722   1.904       .  S
O704        C706   1.266       .  A
Ni705       O708   1.909       .  S
Ni705       O710   1.921       .  S
C706        O716   1.264       .  A
C706        C798   1.459       .  S
O707       Ni723   1.903       .  S
O707        C713   1.277       .  A
O708        C713   1.276       .  A
O710        C712   1.276       .  A
O711       Ni722   1.938       .  S
C712        O718   1.276       .  A
C712        C788   1.491       .  S
C713        C811   1.448       .  S
H714        O715   0.966       .  S
O715       Ni717   1.902       .  S
O715       Ni722   1.912       .  S
O716       Ni717   1.901       .  S
Ni717       O721   1.920       .  S
Ni717       O719   1.930       .  S
O718       Ni723   1.935       .  S
C720        O721   1.265       .  A
C720        C818   1.496       .  S
O725       Ni731   1.949       .  S
O726       Ni749   1.920       .  S
O726        C735   1.265       .  A
O727       Ni731   1.912       .  S
O727       Ni749   1.902       .  S
O727        H750   0.966       .  S
C728        O745   1.277       .  A
C728        O737   1.275       .  A
C728        C861   1.448       .  S
O729       Ni748   1.893       .  S
O730       Ni748   1.921       .  S
O730        C732   1.276       .  A
Ni731       O734   1.938       .  S
Ni731       O736   1.904       .  S
C732        O742   1.276       .  A
C732        C838   1.490       .  S
O733       Ni749   1.930       .  S
O733        C739   1.280       .  A
O734        C739   1.284       .  A
C735        C821   1.496       .  S
O736       C1186   1.266       .  A
O737       Ni972   1.909       .  S
C738        O960   1.266       .  A
C738        O968   1.264       .  A
C738        C871   1.459       .  S
C739        C851   1.496       .  S
H740        O965   0.967       .  S
O741       Ni743   1.872       .  S
O741       Ni748   1.893       .  S
O741       H1188   0.967       .  S
O742       Ni743   1.935       .  S
Ni743       O747   1.900       .  S
Ni743      O1193   1.904       .  S
O744       Ni749   1.902       .  S
O744       C1186   1.264       .  A
O745       Ni967   1.904       .  S
C746        O747   1.269   1_455  A
C746        C831   1.501       .  S
Ni748      O1185   1.909       .  S
O751       Ni757   1.951       .  S
O751        C772   1.277       .  A
O752       Ni775   1.920       .  S
O752        C761   1.265       .  A
O753       Ni757   1.912       .  S
O753       Ni775   1.902       .  S
O753       Ni769   1.921       .  S
O753        H776   0.965       .  S
C754        O771   1.277       .  A
C754        O763   1.275       .  A
C754        C808   1.448       .  S
O755       Ni774   1.892       .  S
O755        C761   1.270       .  A
O756       Ni774   1.920       .  S
O756        C758   1.276       .  A
Ni757       O760   1.938       .  S
Ni757       O762   1.906       .  S
C758        O768   1.277       .  A
C758        C791   1.492       .  S
O759       Ni775   1.931       .  S
O759        C765   1.280       .  A
O760        C765   1.284       .  A
C761        C891   1.498       .  S
O762       C1212   1.266       .  A
O763       Ni998   1.909       .  S
C764        O986   1.266       .  A
C764        O994   1.263       .  A
C764        C801   1.459       .  S
C765        C778   1.495       .  S
H766        O991   0.967       .  S
O767       Ni775   1.930       .  S
O767       Ni769   1.874       .  S
O767       Ni774   1.892       .  S
O767       H1214   0.967       .  S
O768       Ni769   1.937       .  S
Ni769       O773   1.900       .  S
Ni769      O1219   1.904       .  S
O770       Ni775   1.899       .  S
O770       C1212   1.263       .  A
O771       Ni993   1.904       .  S
C772        O773   1.269       .  A
C772        C881   1.504       .  S
Ni774      O1211   1.909       .  S
C777        C778   1.406       .  A
C777        C782   1.404       .  A
C777        F784   1.358       .  S
C778        C779   1.415       .  A
C779        C780   1.404       .  A
C779        F786   1.358       .  S
C780        C781   1.407       .  A
C780        F785   1.358       .  S
C781        C782   1.415       .  A
C782        F783   1.358       .  S
C787        C788   1.408       .  A
C787        C792   1.404       .  A
C787        F794   1.358       .  S
C788        C789   1.411       .  A
C789        C790   1.404       .  A
C789        F796   1.358       .  S
C790        C791   1.408       .  A
C790        F795   1.358       .  S
C791        C792   1.411       .  A
C792        F793   1.358       .  S
C797       C1246   1.403       .  A
C797        C802   1.390   1_556  A
C797        F804   1.358   1_556  S
C798       C1021   1.403       .  A
C798        C799   1.406       .  A
C799        C800   1.390       .  A
C799        F806   1.359       .  S
C800        C801   1.403       .  A
C800        F805   1.358       .  S
C801       C1026   1.406       .  A
C802       C1249   1.406       .  A
C802        F803   1.359       .  S
C807       C1256   1.403   1_554  A
C807        C812   1.390   1_554  A
C807        F814   1.358       .  S
C808       C1031   1.403       .  A
C808        C809   1.401       .  A
C809        C810   1.390       .  A
C809        F816   1.358       .  S
C810        C811   1.403       .  A
C810        F815   1.358       .  S
C811       C1036   1.401       .  A
C812       C1259   1.401       .  A
C812        F813   1.358   1_556  S
C817        C818   1.414       .  A
C817       C1046   1.403       .  A
C817       F1048   1.357       .  S
C819        C820   1.403       .  A
C819        F826   1.358       .  S
C820       C1045   1.414       .  A
C820        F825   1.357       .  S
C821       C1268   1.414   1_554  A
C822       C1265   1.403   1_554  A
C822        F823   1.358       .  S
F824       C1265   1.357       .  S
C827       C1056   1.404       .  A
C827        F834   1.355       .  S
C828        C829   1.411       .  A
C829        C830   1.404       .  A
C829        F836   1.358       .  S
C830       C1055   1.412   1_655  A
C830        F835   1.355       .  S
C831       C1278   1.412   1_454  A
C832       C1275   1.404   1_554  A
C832        F833   1.358       .  S
C837        C838   1.411       .  A
C837        C842   1.404       .  A
C837        F844   1.358       .  S
C838        C839   1.407       .  A
C839        C840   1.404       .  A
C839        F846   1.358       .  S
C840        C841   1.411       .  A
C840        F845   1.358       .  S
C841        C842   1.407       .  A
C842        F843   1.358       .  S
C847        C848   1.406       .  A
C847        C852   1.404       .  A
C847        F854   1.358       .  S
C848        C849   1.414       .  A
C849        C850   1.404       .  A
C849        F856   1.358       .  S
C850        C851   1.406       .  A
C850        F855   1.358       .  S
C851        C852   1.415       .  A
C852        F853   1.358       .  S
C857        C858   1.403       .  A
C857        C862   1.390       .  A
C857        F864   1.358       .  S
C858        C859   1.401       .  A
C859        C860   1.390       .  A
C859        F866   1.358       .  S
C860        C861   1.403       .  A
C860        F865   1.358       .  S
C861        C862   1.401       .  A
C862        F863   1.358       .  S
C867       C1316   1.404       .  A
C867        C872   1.390   1_556  A
C867        F874   1.358   1_556  S
C868       C1091   1.404       .  A
C868        C869   1.406       .  A
C869        C870   1.390       .  A
C869        F876   1.359       .  S
C870        C871   1.403       .  A
C870        F875   1.358       .  S
C871       C1096   1.406       .  A
C872       C1319   1.406       .  A
C872        F873   1.359       .  S
C877        C878   1.413       .  A
C877        C882   1.405   1_565  A
C877        F884   1.358       .  S
C878        C879   1.412       .  A
C879       C1104   1.405       .  A
C879        F886   1.356       .  S
C880       C1327   1.405       .  A
C880        C881   1.413   1_566  A
C880        F885   1.358   1_556  S
C881       C1330   1.412       .  A
C882       C1105   1.412       .  A
C882       F1107   1.356       .  S
F883       C1330   1.356       .  S
C887        C888   1.414       .  A
C887       C1116   1.403       .  A
C887        F894   1.358       .  S
C888        C889   1.409       .  A
C889        C890   1.403       .  A
C889        F896   1.358       .  S
C890       C1115   1.414       .  A
C890        F895   1.358       .  S
C891       C1338   1.414   1_554  A
C891        C892   1.409       .  A
C892       C1335   1.403   1_554  A
C892        F893   1.358       .  S
O897       Ni903   1.892       .  S
O897        C918   1.270       .  A
O898       Ni921   1.900       .  S
O898        C907   1.269       .  A
O899       Ni903   1.892       .  S
O899       Ni921   1.874       .  S
O899       Ni915   1.930       .  S
O899        H922   0.967       .  S
C900        O917   1.280       .  A
C900        O909   1.284       .  A
C900       C1072   1.495       .  S
O901       Ni920   1.951       .  S
O901        C907   1.277       .  A
O902       Ni920   1.906       .  S
O902        C904   1.266       .  A
Ni903       O906   1.908       .  S
Ni903       O908   1.920       .  S
C904        O914   1.263       .  A
C904       C1092   1.460       .  S
O905       Ni921   1.904       .  S
O905        C911   1.277       .  A
O906        C911   1.275       .  A
C907       C1102   1.504       .  S
O908        C910   1.276       .  A
O909       Ni920   1.938       .  S
C910        O916   1.277       .  A
C910       C1065   1.491       .  S
C911       C1082   1.448       .  S
H912        O913   0.965       .  S
O913       Ni921   1.921       .  S
O913       Ni915   1.902       .  S
O913       Ni920   1.912       .  S
O914       Ni915   1.899       .  S
Ni915       O919   1.920       .  S
Ni915       O917   1.931       .  S
O916       Ni921   1.937       .  S
C918        O919   1.265       .  A
C918       C1112   1.498       .  S
O923       Ni929   1.893       .  S
O924       Ni947   1.900       .  S
O924        C933   1.269       .  A
O925       Ni929   1.893       .  S
O925       Ni947   1.872       .  S
O925        H948   0.967       .  S
C926        O943   1.280       .  A
C926        O935   1.284       .  A
C926       C1005   1.496       .  S
O927       Ni946   1.949       .  S
O928       Ni946   1.904       .  S
O928        C930   1.266       .  A
Ni929       O932   1.909       .  S
Ni929       O934   1.921       .  S
C930        O940   1.264       .  A
C930       C1022   1.459       .  S
O931       Ni947   1.903       .  S
O931        C937   1.277       .  A
O932        C937   1.276       .  A
O934        C936   1.276       .  A
O935       Ni946   1.938       .  S
C936        O942   1.276       .  A
C936       C1012   1.491       .  S
C937       C1035   1.448       .  S
H938        O939   0.966       .  S
O939       Ni941   1.902       .  S
O939       Ni946   1.912       .  S
O940       Ni941   1.901       .  S
Ni941       O945   1.920       .  S
Ni941       O943   1.930       .  S
O942       Ni947   1.935       .  S
C944        O945   1.265       .  A
C944       C1042   1.496       .  S
O949       Ni955   1.949       .  S
O950       Ni973   1.920       .  S
O950        C959   1.265       .  A
O951       Ni955   1.912       .  S
O951       Ni973   1.902       .  S
O951        H974   0.966       .  S
C952        O969   1.277       .  A
C952        O961   1.275       .  A
C952       C1085   1.448       .  S
O953       Ni972   1.893       .  S
O954       Ni972   1.921       .  S
O954        C956   1.276       .  A
Ni955       O958   1.938       .  S
Ni955       O960   1.904       .  S
C956        O966   1.276       .  A
C956       C1062   1.490       .  S
O957       Ni973   1.930       .  S
O957        C963   1.280       .  A
O958        C963   1.284       .  A
C959       C1045   1.496       .  S
O961      Ni1196   1.909       .  S
C962       O1184   1.266       .  A
C962       O1192   1.264       .  A
C962       C1095   1.459       .  S
C963       C1075   1.496       .  S
H964       O1189   0.967       .  S
O965       Ni967   1.872       .  S
O965       Ni972   1.893       .  S
O966       Ni967   1.935       .  S
Ni967       O971   1.900       .  S
O968       Ni973   1.902       .  S
O969      Ni1191   1.904       .  S
C970        O971   1.269   1_455  A
C970       C1055   1.501       .  S
O975       Ni981   1.951       .  S
O975        C996   1.277       .  A
O976       Ni999   1.920       .  S
O976        C985   1.265       .  A
O977       Ni981   1.912       .  S
O977       Ni999   1.902       .  S
O977       Ni993   1.921       .  S
O977       H1000   0.965       .  S
C978        O995   1.277       .  A
C978        O987   1.275       .  A
C978       C1032   1.448       .  S
O979       Ni998   1.892       .  S
O979        C985   1.270       .  A
O980       Ni998   1.920       .  S
O980        C982   1.276       .  A
Ni981       O984   1.938       .  S
Ni981       O986   1.906       .  S
C982        O992   1.277       .  A
C982       C1015   1.492       .  S
O983       Ni999   1.931       .  S
O983        C989   1.280       .  A
O984        C989   1.284       .  A
C985       C1115   1.498       .  S
O987      Ni1222   1.909       .  S
C988       O1210   1.266       .  A
C988       O1218   1.263       .  A
C988       C1025   1.459       .  S
C989       C1002   1.495       .  S
H990       O1215   0.967       .  S
O991       Ni999   1.930       .  S
O991       Ni993   1.874       .  S
O991       Ni998   1.892       .  S
O992       Ni993   1.937       .  S
Ni993       O997   1.900       .  S
O994       Ni999   1.899       .  S
O995      Ni1217   1.904       .  S
C996        O997   1.269       .  A
C996       C1105   1.504       .  S
C1001      C1002   1.406       .  A
C1001      C1006   1.404       .  A
C1001      F1008   1.358       .  S
C1002      C1003   1.415       .  A
C1003      C1004   1.404       .  A
C1003      F1010   1.358       .  S
C1004      C1005   1.407       .  A
C1004      F1009   1.358       .  S
C1005      C1006   1.415       .  A
C1006      F1007   1.358       .  S
C1011      C1012   1.408       .  A
C1011      C1016   1.404       .  A
C1011      F1018   1.358       .  S
C1012      C1013   1.411       .  A
C1013      C1014   1.404       .  A
C1013      F1020   1.358       .  S
C1014      C1015   1.408       .  A
C1014      F1019   1.358       .  S
C1015      C1016   1.411       .  A
C1016      F1017   1.358       .  S
C1021      C1026   1.390       .  A
C1021      F1028   1.358       .  S
C1022      C1245   1.403       .  A
C1022      C1023   1.406       .  A
C1023      C1024   1.390       .  A
C1023      F1030   1.359       .  S
C1024      C1025   1.403       .  A
C1024      F1029   1.358       .  S
C1025      C1250   1.406       .  A
C1026      F1027   1.359       .  S
C1031      C1036   1.390       .  A
C1031      F1038   1.358       .  S
C1032      C1255   1.403       .  A
C1032      C1033   1.401       .  A
C1033      C1034   1.390       .  A
C1033      F1040   1.358       .  S
C1034      C1035   1.403       .  A
C1034      F1039   1.358       .  S
C1035      C1260   1.401       .  A
C1036      F1037   1.358       .  S
C1041      C1042   1.414       .  A
C1041      C1270   1.403       .  A
C1041      F1272   1.357       .  S
C1043      C1044   1.403       .  A
C1043      F1050   1.358       .  S
C1044      C1269   1.414       .  A
C1044      F1049   1.357       .  S
C1046      F1047   1.358       .  S
C1051      C1280   1.404       .  A
C1051      F1058   1.355       .  S
C1052      C1053   1.411       .  A
C1053      C1054   1.404       .  A
C1053      F1060   1.358       .  S
C1054      C1279   1.412   1_655  A
C1054      F1059   1.355       .  S
C1056      F1057   1.358       .  S
C1061      C1062   1.411       .  A
C1061      C1066   1.404       .  A
C1061      F1068   1.358       .  S
C1062      C1063   1.407       .  A
C1063      C1064   1.404       .  A
C1063      F1070   1.358       .  S
C1064      C1065   1.411       .  A
C1064      F1069   1.358       .  S
C1065      C1066   1.407       .  A
C1066      F1067   1.358       .  S
C1071      C1072   1.406       .  A
C1071      C1076   1.404       .  A
C1071      F1078   1.358       .  S
C1072      C1073   1.414       .  A
C1073      C1074   1.404       .  A
C1073      F1080   1.358       .  S
C1074      C1075   1.406       .  A
C1074      F1079   1.358       .  S
C1075      C1076   1.415       .  A
C1076      F1077   1.358       .  S
C1081      C1082   1.403       .  A
C1081      C1086   1.390       .  A
C1081      F1088   1.358       .  S
C1082      C1083   1.401       .  A
C1083      C1084   1.390       .  A
C1083      F1090   1.358       .  S
C1084      C1085   1.403       .  A
C1084      F1089   1.358       .  S
C1085      C1086   1.401       .  A
C1086      F1087   1.358       .  S
C1091      C1096   1.390       .  A
C1091      F1098   1.358       .  S
C1092      C1315   1.404       .  A
C1092      C1093   1.406       .  A
C1093      C1094   1.390       .  A
C1093      F1100   1.359       .  S
C1094      C1095   1.403       .  A
C1094      F1099   1.358       .  S
C1095      C1320   1.406       .  A
C1096      F1097   1.359       .  S
C1101      C1102   1.413       .  A
C1101      C1106   1.405   1_565  A
C1101      F1108   1.358       .  S
C1102      C1103   1.412       .  A
C1103      C1328   1.405       .  A
C1103      F1110   1.356       .  S
C1104      C1105   1.413   1_565  A
C1104      F1109   1.358       .  S
C1106      C1329   1.412       .  A
C1106      F1331   1.356       .  S
C1111      C1112   1.414       .  A
C1111      C1340   1.403       .  A
C1111      F1118   1.358       .  S
C1112      C1113   1.409       .  A
C1113      C1114   1.403       .  A
C1113      F1120   1.358       .  S
C1114      C1339   1.414       .  A
C1114      F1119   1.358       .  S
C1115      C1116   1.409       .  A
C1116      F1117   1.358       .  S
O1121     Ni1127   1.892       .  S
O1121      C1142   1.270       .  A
O1122     Ni1145   1.900       .  S
O1122      C1131   1.269       .  A
O1123     Ni1127   1.892       .  S
O1123     Ni1145   1.874       .  S
O1123     Ni1139   1.930       .  S
O1123      H1146   0.967       .  S
C1124      O1141   1.280       .  A
C1124      O1133   1.284       .  A
C1124      C1296   1.495       .  S
O1125     Ni1144   1.951       .  S
O1125      C1131   1.277       .  A
O1126     Ni1144   1.906       .  S
O1126      C1128   1.266       .  A
Ni1127     O1130   1.908       .  S
Ni1127     O1132   1.920       .  S
C1128      O1138   1.263       .  A
C1128      C1316   1.459       .  S
O1129     Ni1145   1.904       .  S
O1129      C1135   1.277       .  A
O1130      C1135   1.275       .  A
C1131      C1326   1.504       .  S
O1132      C1134   1.276       .  A
O1133     Ni1144   1.938       .  S
C1134      O1140   1.277       .  A
C1134      C1289   1.491       .  S
C1135      C1306   1.448       .  S
H1136      O1137   0.965       .  S
O1137     Ni1145   1.921       .  S
O1137     Ni1139   1.902       .  S
O1137     Ni1144   1.912       .  S
O1138     Ni1139   1.899       .  S
Ni1139     O1143   1.920       .  S
Ni1139     O1141   1.931       .  S
O1140     Ni1145   1.937       .  S
C1142      O1143   1.265       .  A
C1142      C1336   1.498       .  S
O1147     Ni1153   1.893       .  S
O1148     Ni1171   1.900       .  S
O1148      C1157   1.269       .  A
O1149     Ni1153   1.893       .  S
O1149     Ni1171   1.872       .  S
O1149      H1172   0.967       .  S
C1150      O1167   1.280       .  A
C1150      O1159   1.284       .  A
C1150      C1229   1.496       .  S
O1151     Ni1170   1.949       .  S
O1152     Ni1170   1.904       .  S
O1152      C1154   1.266       .  A
Ni1153     O1156   1.909       .  S
Ni1153     O1158   1.921       .  S
C1154      O1164   1.264       .  A
C1154      C1246   1.459       .  S
O1155     Ni1171   1.903       .  S
O1155      C1161   1.277       .  A
O1156      C1161   1.276       .  A
O1158      C1160   1.276       .  A
O1159     Ni1170   1.938       .  S
C1160      O1166   1.276       .  A
C1160      C1236   1.491       .  S
C1161      C1259   1.448       .  S
H1162      O1163   0.966       .  S
O1163     Ni1165   1.902       .  S
O1163     Ni1170   1.912       .  S
O1164     Ni1165   1.901       .  S
Ni1165     O1169   1.920       .  S
Ni1165     O1167   1.930       .  S
O1166     Ni1171   1.935       .  S
C1168      O1169   1.265       .  A
C1168      C1266   1.496       .  S
O1173     Ni1179   1.949       .  S
O1174     Ni1197   1.920       .  S
O1174      C1183   1.265       .  A
O1175     Ni1179   1.912       .  S
O1175     Ni1197   1.902       .  S
O1175      H1198   0.966       .  S
C1176      O1193   1.277       .  A
C1176      O1185   1.275       .  A
C1176      C1309   1.448   1_554  S
O1177     Ni1196   1.893       .  S
O1178     Ni1196   1.921       .  S
O1178      C1180   1.276       .  A
Ni1179     O1182   1.938       .  S
Ni1179     O1184   1.904       .  S
C1180      O1190   1.276       .  A
C1180      C1286   1.490       .  S
O1181     Ni1197   1.930       .  S
O1181      C1187   1.280       .  A
O1182      C1187   1.284       .  A
C1183      C1269   1.496       .  S
C1186      C1319   1.459       .  S
C1187      C1299   1.496       .  S
O1189     Ni1191   1.872       .  S
O1189     Ni1196   1.893       .  S
O1190     Ni1191   1.935       .  S
Ni1191     O1195   1.900       .  S
O1192     Ni1197   1.902       .  S
C1194      O1195   1.269   1_455  A
C1194      C1279   1.501       .  S
O1199     Ni1205   1.951       .  S
O1199      C1220   1.277       .  A
O1200     Ni1223   1.920       .  S
O1200      C1209   1.265       .  A
O1201     Ni1205   1.912       .  S
O1201     Ni1223   1.902       .  S
O1201     Ni1217   1.921       .  S
O1201      H1224   0.965       .  S
C1202      O1219   1.277       .  A
C1202      O1211   1.275       .  A
C1202      C1256   1.448   1_554  S
O1203     Ni1222   1.892       .  S
O1203      C1209   1.270       .  A
O1204     Ni1222   1.920       .  S
O1204      C1206   1.276       .  A
Ni1205     O1208   1.938       .  S
Ni1205     O1210   1.906       .  S
C1206      O1216   1.277       .  A
C1206      C1239   1.492       .  S
O1207     Ni1223   1.931       .  S
O1207      C1213   1.280       .  A
O1208      C1213   1.284       .  A
C1209      C1339   1.498       .  S
C1212      C1249   1.459       .  S
C1213      C1226   1.495       .  S
O1215     Ni1223   1.930       .  S
O1215     Ni1217   1.874       .  S
O1215     Ni1222   1.892       .  S
O1216     Ni1217   1.937       .  S
Ni1217     O1221   1.900       .  S
O1218     Ni1223   1.899       .  S
C1220      O1221   1.269       .  A
C1220      C1329   1.504       .  S
C1225      C1226   1.406       .  A
C1225      C1230   1.404       .  A
C1225      F1232   1.358       .  S
C1226      C1227   1.415       .  A
C1227      C1228   1.404       .  A
C1227      F1234   1.358       .  S
C1228      C1229   1.407       .  A
C1228      F1233   1.358       .  S
C1229      C1230   1.415       .  A
C1230      F1231   1.358       .  S
C1235      C1236   1.408       .  A
C1235      C1240   1.404       .  A
C1235      F1242   1.358       .  S
C1236      C1237   1.411       .  A
C1237      C1238   1.404       .  A
C1237      F1244   1.358       .  S
C1238      C1239   1.408       .  A
C1238      F1243   1.358       .  S
C1239      C1240   1.411       .  A
C1240      F1241   1.358       .  S
C1245      C1250   1.390       .  A
C1245      F1252   1.358       .  S
C1246      C1247   1.406       .  A
C1247      C1248   1.390       .  A
C1247      F1254   1.359       .  S
C1248      C1249   1.403   1_556  A
C1248      F1253   1.358       .  S
C1250      F1251   1.359       .  S
C1255      C1260   1.390       .  A
C1255      F1262   1.358       .  S
C1256      C1257   1.401       .  A
C1257      C1258   1.390       .  A
C1257      F1264   1.358       .  S
C1258      C1259   1.403       .  A
C1258      F1263   1.358       .  S
C1260      F1261   1.358       .  S
C1265      C1266   1.414       .  A
C1267      C1268   1.403       .  A
C1267      F1274   1.358       .  S
C1268      F1273   1.357       .  S
C1270      F1271   1.358       .  S
C1275      F1282   1.355       .  S
C1276      C1277   1.411       .  A
C1277      C1278   1.404       .  A
C1277      F1284   1.358       .  S
C1278      F1283   1.355   1_556  S
C1280      F1281   1.358       .  S
C1285      C1286   1.411       .  A
C1285      C1290   1.404       .  A
C1285      F1292   1.358       .  S
C1286      C1287   1.407       .  A
C1287      C1288   1.404       .  A
C1287      F1294   1.358       .  S
C1288      C1289   1.411       .  A
C1288      F1293   1.358       .  S
C1289      C1290   1.407       .  A
C1290      F1291   1.358       .  S
C1295      C1296   1.406       .  A
C1295      C1300   1.404       .  A
C1295      F1302   1.358       .  S
C1296      C1297   1.414       .  A
C1297      C1298   1.404       .  A
C1297      F1304   1.358       .  S
C1298      C1299   1.406       .  A
C1298      F1303   1.358       .  S
C1299      C1300   1.415       .  A
C1300      F1301   1.358       .  S
C1305      C1306   1.403       .  A
C1305      C1310   1.390       .  A
C1305      F1312   1.358       .  S
C1306      C1307   1.401   1_556  A
C1307      C1308   1.390       .  A
C1307      F1314   1.358       .  S
C1308      C1309   1.403   1_554  A
C1308      F1313   1.358       .  S
C1309      C1310   1.401       .  A
C1310      F1311   1.358       .  S
C1315      C1320   1.390       .  A
C1315      F1322   1.358       .  S
C1316      C1317   1.406       .  A
C1317      C1318   1.390       .  A
C1317      F1324   1.359       .  S
C1318      C1319   1.403   1_556  A
C1318      F1323   1.358       .  S
C1320      F1321   1.359       .  S
C1325      C1326   1.413       .  A
C1325      C1330   1.405   1_566  A
C1325      F1332   1.358       .  S
C1326      C1327   1.412       .  A
C1327      F1334   1.356       .  S
C1328      C1329   1.413   1_565  A
C1328      F1333   1.358       .  S
C1335      C1336   1.414       .  A
C1335      F1342   1.358       .  S
C1336      C1337   1.409       .  A
C1337      C1338   1.403       .  A
C1337      F1344   1.358       .  S
C1338      F1343   1.358   1_556  S
C1339      C1340   1.409       .  A
C1340      F1341   1.358       .  S
