geometry optimzed in LAMMPS
_audit_creation_date              2020-11-30 
_audit_creation_method            'lammps2cif' 
_symmetry_space_group_name_H-M    'P1' 
_symmetry_Int_Tables_number       1 
_symmetry_cell_setting            triclinic 
loop_ 
_symmetry_equiv_pos_as_xyz 
  x,y,z 
_cell_length_a                    30.66516602 
_cell_length_b                    30.558514257441868 
_cell_length_c                    46.17385589740493 
_cell_angle_alpha                 89.08181602608788 
_cell_angle_beta                  91.18386734099663 
_cell_angle_gamma                 119.64387966916017 
loop_ 
_atom_site_label 
_atom_site_type_symbol 
_atom_site_fract_x 
_atom_site_fract_y 
_atom_site_fract_z 
_atom_site_charge 
O1          O  0.26954725  0.01439610  0.65264580    -0.84800
O2          O  0.35573762  0.05970038  0.62179916    -0.81800
C3          C  0.33920050  0.07778050  0.60237393     0.98700
O4          O  0.33396352  0.11475211  0.60833056    -0.81900
O5          O  0.31599382  0.18109599  0.63818246    -0.84500
C6          C  0.27000272  0.15759532  0.64544176     1.03200
O7          O  0.25494028  0.12234150  0.66351445    -0.77300
O8          O  0.24242094  0.03777550  0.68947935    -0.77500
C9          C  0.23388484  0.00738904  0.66842110     1.03200
O10         O  0.32444859  0.03373579  0.70674152    -0.84800
O11         O  0.41018380  0.09135705  0.67652084    -0.81800
C12         C  0.44302488  0.12733783  0.66198986     0.98700
O13         O  0.42929255  0.14684693  0.64156181    -0.81900
O14         O  0.40664168  0.20545427  0.67205133    -0.84500
C15         C  0.38778417  0.21874422  0.69130481     1.03200
O16         O  0.34233924  0.18985034  0.69897815    -0.77300
O17         O  0.33440151  0.10344036  0.72469118    -0.77400
C18         C  0.33386373  0.06232091  0.72830243     1.03100
Cr19       Cr  0.33975836  0.05373757  0.66455096     1.93700
Cr20       Cr  0.36879479  0.15830437  0.64156945     1.93200
Cr21       Cr  0.29650117  0.11316780  0.69256814     1.39100
O22         O  0.33495523  0.10879253  0.66629727    -1.22500
O23         O  0.33506408  0.92410902  0.00797116    -0.84800
O24         O  0.37347089  0.00874416  0.04187344    -0.81800
C25         C  0.38901060  0.99342056  0.06337579     0.98700
O26         O  0.42566312  0.98616890  0.06028204    -0.81900
O27         O  0.50038999  0.97131809  0.03467029    -0.84500
C28         C  0.48021340  0.92627517  0.02539839     1.03200
O29         O  0.44365650  0.91052195  0.00830178    -0.77300
O30         O  0.36802256  0.90052633  0.97420566    -0.77500
C31         C  0.33371622  0.88962323  0.99272045     1.03200
O32         O  0.36707087  0.98344926  0.95539171    -0.84800
O33         O  0.41671561  0.06730873  0.98974967    -0.81800
C34         C  0.44975689  0.09851685  0.00664857     0.98700
O35         O  0.46362795  0.08304094  0.02899671    -0.81900
O36         O  0.52879999  0.06323508  0.00298793    -0.84500
C37         C  0.54632448  0.04556975  0.98529519     1.03200
O38         O  0.51959419  0.00011027  0.97666679    -0.77300
O39         O  0.43986173  0.99355299  0.94408381    -0.77400
C40         C  0.39977402  0.99208833  0.93629350     1.03100
Cr41       Cr  0.37688364  0.99568328  0.99898000     1.93700
Cr42       Cr  0.47596138  0.02309979  0.03016370     1.93200
Cr43       Cr  0.44226077  0.95400042  0.97742124     1.39100
O44         O  0.43199018  0.99104354  0.00211473    -1.22500
O45         O  0.32659611  0.92591927  0.34427024    -0.84800
O46         O  0.30024549  0.95011990  0.29208454    -0.81800
C47         C  0.27162221  0.94537329  0.27094815     0.98700
O48         O  0.22582319  0.92986802  0.27528878    -0.81900
O49         O  0.18095526  0.82796709  0.29409627    -0.84500
C50         C  0.16793919  0.79086012  0.31144202     1.03200
O51         O  0.16760930  0.79743490  0.33829621    -0.77300
O52         O  0.26968329  0.84563557  0.34825426    -0.77500
C53         C  0.31443927  0.87980426  0.34369758     1.03200
O54         O  0.28165508  0.97767144  0.37364453    -0.84800
O55         O  0.25834816  0.00363188  0.32150937    -0.81800
C56         C  0.21384092  0.99532379  0.32359089     0.98700
O57         O  0.17674342  0.95130648  0.32038699    -0.81900
O58         O  0.12259550  0.85022327  0.33315932    -0.84500
C59         C  0.11928643  0.85393438  0.36006135     1.03200
O60         O  0.15687015  0.86440299  0.37654371    -0.77300
O61         O  0.25870921  0.90391236  0.39254689    -0.77400
C62         C  0.27540773  0.95044118  0.39562971     1.03100
Cr63       Cr  0.28677664  0.95942790  0.33303484     1.93700
Cr64       Cr  0.18052859  0.89082242  0.30759399     1.93200
Cr65       Cr  0.21451384  0.85688499  0.36182107     1.39100
O66         O  0.22768222  0.90271610  0.33409565    -1.22500
O67         O  0.67081063  0.60706873  0.68403982    -0.84800
O68         O  0.71678953  0.69059118  0.71847285    -0.81800
C69         C  0.73549898  0.67399532  0.73745988     0.98700
O70         O  0.76797920  0.66283934  0.73046286    -0.81900
O71         O  0.83510412  0.64614756  0.69919153    -0.84500
C72         C  0.81191805  0.60275062  0.68782642     1.03200
O73         O  0.77308899  0.59042709  0.67342846    -0.77300
O74         O  0.69529679  0.58486674  0.64562891    -0.77500
C75         C  0.66609901  0.57280703  0.66728733     1.03200
O76         O  0.69459301  0.66857578  0.63194054    -0.84800
O77         O  0.75264812  0.75114313  0.66691992    -0.81800
C78         C  0.78842647  0.78036830  0.68328982     0.98700
O79         O  0.80628581  0.76307521  0.70273509    -0.81900
O80         O  0.86602952  0.74137095  0.67209353    -0.84500
C81         C  0.87935869  0.72267427  0.65272464     1.03200
O82         O  0.84784003  0.68021723  0.64168878    -0.77300
O83         O  0.76513672  0.67944797  0.61487238    -0.77400
C84         C  0.72396905  0.67826094  0.61078127     1.03100
Cr85       Cr  0.71230679  0.67905863  0.67510812     1.93700
Cr86       Cr  0.81473077  0.70093249  0.69963794     1.93200
Cr87       Cr  0.77047407  0.63671086  0.64545883     1.39100
O88         O  0.76660868  0.67312702  0.67305377    -1.22500
O89         O  0.67590924  0.59054935  0.01917516    -0.84800
O90         O  0.65275920  0.61071581  0.96579156    -0.81800
C91         C  0.62640477  0.60579566  0.94364702     0.98700
O92         O  0.58014897  0.59013933  0.94561593    -0.81900
O93         O  0.54100364  0.48938684  0.96312314    -0.84500
C94         C  0.52975076  0.45264491  0.98034393     1.03200
O95         O  0.52232297  0.45656631  0.00667413    -0.77300
O96         O  0.62295292  0.50921447  0.01947557    -0.77500
C97         C  0.66690813  0.54578509  0.01565455     1.03200
O98         O  0.62126800  0.63615634  0.04432047    -0.84800
O99         O  0.60185139  0.65949720  0.99036317    -0.81800
C100        C  0.55634320  0.64844623  0.99211900     0.98700
O101        O  0.52162835  0.60352670  0.98836440    -0.81900
O102        O  0.47247675  0.50206721  0.99940309    -0.84500
C103        C  0.46657795  0.50822033  0.02566283     1.03200
O104        O  0.50283144  0.52027003  0.04354531    -0.77300
O105        O  0.60344706  0.56340983  0.06338054    -0.77400
C106        C  0.61521632  0.60885873  0.06622093     1.03100
Cr107      Cr  0.63364680  0.61980458  0.00493007     1.93700
Cr108      Cr  0.53218922  0.54729908  0.97592313     1.93200
Cr109      Cr  0.56389151  0.51574298  0.03164257     1.39100
O110        O  0.57693396  0.56134507  0.00418292    -1.22500
O111        O  0.58750313  0.66437625  0.32659623    -0.84800
O112        O  0.67316764  0.70582093  0.29402574    -0.81800
C113        C  0.66058548  0.72554580  0.27350719     0.98700
O114        O  0.65578570  0.76328741  0.27853909    -0.81900
O115        O  0.64229348  0.83443116  0.30764592    -0.84500
C116        C  0.59601286  0.81200438  0.31404305     1.03200
O117        O  0.57851718  0.77491524  0.33082885    -0.77300
O118        O  0.56441988  0.69449219  0.36210446    -0.77500
C119        C  0.55301198  0.66204418  0.34216347     1.03200
O120        O  0.64639495  0.68944812  0.37965312    -0.84800
O121        O  0.73186850  0.74141187  0.34702096    -0.81800
C122        C  0.76436469  0.77506619  0.33094121     0.98700
O123        O  0.75028520  0.79366476  0.31034190    -0.81900
O124        O  0.73100159  0.85535773  0.34161580    -0.84500
C125        C  0.71142025  0.87203136  0.35852233     1.03200
O126        O  0.66536111  0.84520423  0.36526808    -0.77300
O127        O  0.65625074  0.76095129  0.39503652    -0.77400
C128        C  0.65484486  0.71968115  0.40025974     1.03100
Cr129      Cr  0.65962879  0.70408892  0.33681894     1.93700
Cr130      Cr  0.69203202  0.80804835  0.31114379     1.93200
Cr131      Cr  0.61916506  0.76849413  0.36173281     1.39100
O132        O  0.65698589  0.76033416  0.33664131    -1.22500
O133        O  0.92241044  0.33052165  0.65022805    -0.84800
O134        O  0.95058665  0.30684092  0.70185744    -0.81800
C135        C  0.94753338  0.27988386  0.72347188     0.98700
O136        O  0.92956161  0.23334917  0.72076043    -0.81900
O137        O  0.82691789  0.19645735  0.70704406    -0.84500
C138        C  0.78825509  0.18374242  0.69114390     1.03200
O139        O  0.79024502  0.17816072  0.66425661    -0.77300
O140        O  0.84144387  0.27775320  0.64983566    -0.77500
C141        C  0.87810742  0.32190070  0.65348923     1.03200
O142        O  0.96431731  0.27922418  0.61948119    -0.84800
O143        O  0.99315182  0.25477846  0.67068631    -0.81800
C144        C  0.98010542  0.20847125  0.67006733     0.98700
O145        O  0.93607581  0.17467236  0.67643412    -0.81900
O146        O  0.83354118  0.12720339  0.66865685    -0.84500
C147        C  0.83807708  0.12053436  0.64234562     1.03200
O148        O  0.84777277  0.15585025  0.62431235    -0.77300
O149        O  0.88842817  0.25519239  0.60358613    -0.77400
C150        C  0.93399533  0.27096780  0.59866458     1.03100
Cr151      Cr  0.95284736  0.28817915  0.66084892     1.93700
Cr152      Cr  0.88253148  0.18672318  0.69120553     1.93200
Cr153      Cr  0.84576047  0.21780624  0.63719517     1.39100
O154        O  0.89432058  0.23142679  0.66298990    -1.22500
O155        O  0.08139563  0.40840229  0.00548340    -0.84800
O156        O  0.99310048  0.35337742  0.03440542    -0.81800
C157        C  0.99895379  0.38149688  0.05572050     0.98700
O158        O  0.00008037  0.42288377  0.05163704    -0.81900
O159        O  0.00965340  0.50942418  0.02431387    -0.84500
C160        C  0.05642577  0.53741522  0.01980156     1.03200
O161        O  0.07895688  0.52214090  0.00428847    -0.77300
O162        O  0.10454584  0.46660685  0.97194984    -0.77500
C163        C  0.11600715  0.44518875  0.99233608     1.03200
O164        O  0.02852257  0.37912624  0.94996086    -0.84800
O165        O  0.94001191  0.33316829  0.97979472    -0.81800
C166        C  0.90424168  0.32765339  0.99520282     0.98700
O167        O  0.91272742  0.35863618  0.01563257    -0.81900
O168        O  0.92771080  0.44229074  0.98626954    -0.84500
C169        C  0.94705416  0.48241369  0.97187916     1.03200
O170        O  0.99414194  0.50533968  0.96702622    -0.77300
O171        O  0.01416561  0.43962562  0.93603209    -0.77400
C172        C  0.01903753  0.40234265  0.92993798     1.03100
Cr173      Cr  0.01062499  0.37253363  0.99242463     1.93700
Cr174      Cr  0.96570401  0.43299364  0.01794778     1.93200
Cr175      Cr  0.04499720  0.47960613  0.97110226     1.39100
O176        O  0.00692834  0.42830104  0.99373435    -1.22500
O177        O  0.99242988  0.25584525  0.33908360    -0.84800
O178        O  0.02974205  0.34352390  0.36937244    -0.81800
C179        C  0.05142158  0.33502218  0.39075100     0.98700
O180        O  0.09084734  0.33311552  0.38672874    -0.81900
O181        O  0.16185904  0.31724039  0.36070870    -0.84500
C182        C  0.13995776  0.26974652  0.35659142     1.03200
O183        O  0.10303903  0.24947373  0.33965675    -0.77300
O184        O  0.02344159  0.22985691  0.30548972    -0.77500
C185        C  0.99044574  0.22029798  0.32465503     1.03200
O186        O  0.01716193  0.30861256  0.28413634    -0.84800
O187        O  0.06348475  0.39732782  0.31435907    -0.81800
C188        C  0.09623567  0.43274301  0.32934472     0.98700
O189        O  0.11694585  0.42253601  0.35067427    -0.81900
O190        O  0.17977222  0.40160663  0.32209307    -0.84500
C191        C  0.19917467  0.38062963  0.30860613     1.03200
O192        O  0.17390995  0.33329394  0.30402243    -0.77300
O193        O  0.09032382  0.31972555  0.27170482    -0.77400
C194        C  0.04861010  0.31526868  0.26461553     1.03100
Cr195      Cr  0.02961779  0.32642208  0.32687359     1.93700
Cr196      Cr  0.13400569  0.36577176  0.35353425     1.93200
Cr197      Cr  0.09707163  0.28613382  0.30651126     1.39100
O198        O  0.08681418  0.32604171  0.32901253    -1.22500
C199        C  0.98087511  0.30700068  0.12598299    -0.11300
C200        C  0.01374777  0.34559735  0.14452673     0.11300
C201        C  0.04367165  0.39493948  0.13359738    -0.03100
C202        C  0.03710562  0.40471791  0.10453107    -0.05900
C203        C  0.00397819  0.36639886  0.08575665    -0.16600
C204        C  0.97551040  0.31634689  0.09653564     0.02300
C205        C  0.01791798  0.33285694  0.17511400     0.12200
C206        C  0.08357564  0.43662093  0.15226694     0.62900
H207        H  0.05861400  0.44259557  0.09608513     0.12300
C208        C  0.93848280  0.27324124  0.07759394     0.55000
H209        H  0.95945899  0.26935505  0.13490615     0.08100
C210        C  0.98839915  0.33631803  0.19708854    -0.05700
C211        C  0.99920710  0.32991424  0.22610241    -0.06500
C212        C  0.03649813  0.31740422  0.23340984    -0.16100
C213        C  0.06096996  0.30705216  0.21072787    -0.01700
C214        C  0.05217205  0.31658436  0.18197421    -0.09200
C215        C  0.94521374  0.34571627  0.18973521     0.65100
H216        H  0.97884864  0.33524160  0.24330617     0.10500
C217        C  0.09510221  0.28471445  0.21621464     0.63500
H218        H  0.07254949  0.31199538  0.16445910     0.07900
F219        F  0.91128279  0.22926412  0.09338116    -0.19600
F220        F  0.96388621  0.26374181  0.05642017    -0.15800
F221        F  0.90481306  0.28550986  0.06475982    -0.19300
F222        F  0.11915343  0.42365850  0.16091554    -0.22700
F223        F  0.06233352  0.44377753  0.17654652    -0.24200
F224        F  0.10783287  0.48199960  0.13739685    -0.18100
F225        F  0.10423064  0.26689926  0.19096018    -0.20600
F226        F  0.07275683  0.24445708  0.23530320    -0.21800
F227        F  0.14078278  0.32094444  0.22745539    -0.19000
F228        F  0.91940804  0.34477491  0.21419660    -0.19100
F229        F  0.91174247  0.30867310  0.17120339    -0.22900
F230        F  0.96278107  0.39207341  0.17638026    -0.24500
C231        C  0.01171133  0.31572057  0.79745335    -0.11300
C232        C  0.98253230  0.33286871  0.81103432     0.11300
C233        C  0.94381691  0.33550549  0.79510813    -0.03100
C234        C  0.93525114  0.32016283  0.76597273    -0.05900
C235        C  0.96339072  0.30157031  0.75270010    -0.16600
C236        C  0.00227745  0.29914456  0.76854195     0.02300
C237        C  0.99431517  0.34931908  0.84173937     0.12200
C238        C  0.91115786  0.35366391  0.80895220     0.62900
H239        H  0.90542885  0.32114051  0.75350366     0.12300
C240        C  0.03388999  0.27954405  0.75487189     0.55000
H241        H  0.04160518  0.31485552  0.80988494     0.08100
C242        C  0.97898293  0.31481183  0.86526369    -0.05700
C243        C  0.98984301  0.33381163  0.89369604    -0.06500
C244        C  0.01347339  0.38571291  0.89926809    -0.16100
C245        C  0.03026642  0.42014443  0.87553091    -0.01700
C246        C  0.02102989  0.40107891  0.84717886    -0.09200
C247        C  0.95102511  0.25828835  0.86038696     0.65100
H248        H  0.97911398  0.30808984  0.91187037     0.10500
C249        C  0.05817341  0.47682556  0.87976696     0.63500
H250        H  0.03328429  0.42659745  0.82878442     0.07900
F251        F  0.00441874  0.22894697  0.74867653    -0.19600
F252        F  0.07269198  0.28498910  0.77308041    -0.15800
F253        F  0.05460690  0.30586456  0.72954760    -0.19300
F254        F  0.93980863  0.40405669  0.81579409    -0.22700
F255        F  0.89005887  0.32630141  0.83392597    -0.24200
F256        F  0.87251728  0.34816177  0.79058579    -0.18100
F257        F  0.09693723  0.49022279  0.89971447    -0.20600
F258        F  0.02544715  0.49210089  0.88942126    -0.21800
F259        F  0.07879299  0.50247880  0.85421666    -0.19000
F260        F  0.93431567  0.23166088  0.88611364    -0.19100
F261        F  0.98245320  0.24410796  0.84760521    -0.22900
F262        F  0.90964032  0.24493388  0.84252995    -0.24500
C263        C  0.94373205  0.26345580  0.51645835    -0.11300
C264        C  0.98930836  0.30707590  0.51100493     0.11300
C265        C  0.01623603  0.33975757  0.53416580    -0.03100
C266        C  0.99756026  0.32587169  0.56253310    -0.05900
C267        C  0.95205314  0.28159653  0.56817694    -0.16600
C268        C  0.92454156  0.24967539  0.54458097     0.02300
C269        C  0.00744366  0.31614006  0.48061405     0.12200
C270        C  0.06343361  0.38969905  0.52876990     0.62900
H271        H  0.01775150  0.35033197  0.58052050     0.12300
C272        C  0.87613094  0.20017696  0.54871409     0.55000
H273        H  0.92354685  0.23970904  0.49820822     0.08100
C274        C  0.03159988  0.29113996  0.46912401    -0.05700
C275        C  0.04409111  0.29789298  0.43965004    -0.06500
C276        C  0.03254130  0.32786283  0.42103494    -0.16100
C277        C  0.00699215  0.35176780  0.43243032    -0.01700
C278        C  0.99502254  0.34547724  0.46217416    -0.09200
C279        C  0.04400936  0.25720950  0.48787738     0.65100
H280        H  0.06299827  0.27924619  0.43079445     0.10500
C281        C  0.99274894  0.38403997  0.41358730     0.63500
H282        H  0.97503564  0.36281374  0.47129461     0.07900
F283        F  0.85973790  0.17280221  0.52331257    -0.19600
F284        F  0.83854439  0.20911299  0.55768164    -0.15800
F285        F  0.88370568  0.17087028  0.56902343    -0.19300
F286        F  0.05197026  0.41954272  0.51097876    -0.22700
F287        F  0.09904557  0.38197259  0.51553751    -0.24200
F288        F  0.08419481  0.41558308  0.55426756    -0.18100
F289        F  0.97096231  0.40603944  0.42946611    -0.20600
F290        F  0.95849863  0.35457306  0.39249361    -0.21800
F291        F  0.03505749  0.42219380  0.40061893    -0.19000
F292        F  0.06751916  0.23660123  0.47231658    -0.19100
F293        F  0.00060344  0.21789728  0.49907765    -0.22900
F294        F  0.07564419  0.28448862  0.51045717    -0.24500
C295        C  0.31955445  0.49988880  0.29639330    -0.11300
C296        C  0.35194916  0.49306377  0.31549768     0.11300
C297        C  0.33581365  0.44426545  0.32726486    -0.03100
C298        C  0.28679292  0.40483239  0.32068519    -0.05900
C299        C  0.25358654  0.41251220  0.30274985    -0.16600
C300        C  0.27157562  0.46003278  0.28898378     0.02300
C301        C  0.40293537  0.53730326  0.32199508     0.12200
C302        C  0.36935663  0.43439714  0.34774889     0.62900
H303        H  0.27252281  0.36894959  0.33164220     0.12300
C304        C  0.24103475  0.47030997  0.26649170     0.55000
H305        H  0.33186781  0.53689234  0.28707511     0.08100
C306        C  0.44238631  0.55473972  0.30191287    -0.05700
C307        C  0.48992457  0.59513494  0.30965039    -0.06500
C308        C  0.49974045  0.62036047  0.33639730    -0.16100
C309        C  0.45889001  0.60505181  0.35570767    -0.01700
C310        C  0.41152150  0.56318567  0.34829228    -0.09200
C311        C  0.43415763  0.53113910  0.27213406     0.65100
H312        H  0.51984332  0.60810534  0.29419662     0.10500
C313        C  0.46440156  0.63288762  0.38369147     0.63500
H314        H  0.38031279  0.55050471  0.36289376     0.07900
F315        F  0.26940976  0.49039155  0.24188327    -0.19600
F316        F  0.22856149  0.50460479  0.27724032    -0.15800
F317        F  0.19755884  0.42705325  0.25847589    -0.19300
F318        F  0.37756534  0.46132917  0.37296349    -0.22700
F319        F  0.41484958  0.44892619  0.33485377    -0.24200
F320        F  0.34803964  0.38392201  0.35507691    -0.18100
F321        F  0.47675962  0.68208517  0.37740562    -0.20600
F322        F  0.50138978  0.63241109  0.40113012    -0.21800
F323        F  0.42037547  0.61121600  0.39923506    -0.19000
F324        F  0.47822009  0.55090661  0.25672027    -0.19100
F325        F  0.40063620  0.54005831  0.25622739    -0.22900
F326        F  0.41520388  0.47976982  0.27481246    -0.24500
C327        C  0.88305423  0.08255002  0.31999125    -0.11300
C328        C  0.86344679  0.07559909  0.34807410     0.11300
C329        C  0.88720357  0.11517194  0.36828307    -0.03100
C330        C  0.92960992  0.16006377  0.35967737    -0.05900
C331        C  0.94862116  0.16824000  0.33135732    -0.16600
C332        C  0.92487871  0.12848584  0.31102396     0.02300
C333        C  0.82040383  0.02534302  0.35591328     0.12200
C334        C  0.86971030  0.11298579  0.39909735     0.62900
H335        H  0.94773137  0.18983720  0.37553431     0.12300
C336        C  0.94250043  0.13439685  0.28000210     0.55000
H337        H  0.86493048  0.05143089  0.30502117     0.08100
C338        C  0.77004219  0.01076823  0.34827420    -0.05700
C339        C  0.73216061  0.96055385  0.35352219    -0.06500
C340        C  0.74321213  0.92544046  0.36685056    -0.16100
C341        C  0.79241575  0.94237150  0.37793058    -0.01700
C342        C  0.83055028  0.99155181  0.37148590    -0.09200
C343        C  0.75677169  0.04813784  0.33449824     0.65100
H344        H  0.69453878  0.94737799  0.34510108     0.10500
C345        C  0.80649669  0.90912755  0.39584877     0.63500
H346        H  0.86880064  0.00360223  0.37847597     0.07900
F347        F  0.91138802  0.09267285  0.26343325    -0.19600
F348        F  0.99027022  0.14050353  0.27964873    -0.15800
F349        F  0.94291774  0.17587054  0.26724320    -0.19300
F350        F  0.90646889  0.11616064  0.41821083    -0.22700
F351        F  0.82538008  0.06969083  0.40537375    -0.24200
F352        F  0.86235631  0.15353069  0.40356384    -0.18100
F353        F  0.83821551  0.89876335  0.38019592    -0.20600
F354        F  0.76499637  0.86424510  0.40387908    -0.21800
F355        F  0.83116712  0.93415116  0.42090375    -0.19000
F356        F  0.70573039  0.02672555  0.32907541    -0.19100
F357        F  0.78134379  0.06569858  0.30852950    -0.22900
F358        F  0.77111104  0.08831635  0.35298091    -0.24500
C359        C  0.59542713  0.65289561  0.13860190    -0.11300
C360        C  0.63983459  0.66339042  0.15343245     0.11300
C361        C  0.67667882  0.65652319  0.13937435    -0.03100
C362        C  0.66783805  0.64005953  0.11043539    -0.05900
C363        C  0.62351454  0.63000371  0.09559333    -0.16600
C364        C  0.58664804  0.63653244  0.10973849     0.02300
C365        C  0.64556476  0.67996282  0.18401366     0.12200
C366        C  0.72466727  0.66587361  0.15492335     0.62900
H367        H  0.69507373  0.63394069  0.09926613     0.12300
C368        C  0.53693338  0.62323586  0.09512639     0.55000
H369        H  0.56705466  0.65658976  0.15017144     0.08100
C370        C  0.65639877  0.72910353  0.19133139    -0.05700
C371        C  0.66041299  0.74178084  0.22075516    -0.06500
C372        C  0.65469280  0.70738423  0.24307648    -0.16100
C373        C  0.64343198  0.65783403  0.23553824    -0.01700
C374        C  0.63801712  0.64490421  0.20601659    -0.09200
C375        C  0.66435537  0.76822909  0.16816537     0.65100
H376        H  0.66887516  0.77940017  0.22649127     0.10500
C377        C  0.63671634  0.61834020  0.25812574     0.63500
H378        H  0.62821375  0.60712326  0.19970465     0.07900
F379        F  0.50866708  0.63719219  0.11162338    -0.19600
F380        F  0.50969506  0.57182379  0.09115716    -0.15800
F381        F  0.54480765  0.64739069  0.06861183    -0.19300
F382        F  0.71345220  0.63200559  0.17755510    -0.22700
F383        F  0.74971741  0.71430476  0.16570425    -0.24200
F384        F  0.75671793  0.66019434  0.13663145    -0.18100
F385        F  0.60021287  0.61196749  0.27745452    -0.20600
F386        F  0.68156853  0.63316126  0.27281778    -0.21800
F387        F  0.62208730  0.57200094  0.24580757    -0.19000
F388        F  0.67820185  0.81472829  0.18000507    -0.19100
F389        F  0.62058532  0.75322413  0.15230481    -0.22900
F390        F  0.70190560  0.77409028  0.14976297    -0.24500
C391        C  0.76266961  0.50053482  0.00758083    -0.11300
C392        C  0.78936646  0.52834464  0.98321307     0.11300
C393        C  0.77380455  0.55948464  0.96856906    -0.03100
C394        C  0.73422460  0.56444450  0.98023372    -0.05900
C395        C  0.70813110  0.53753474  0.00509970    -0.16600
C396        C  0.72196790  0.50422542  0.01865747     0.02300
C397        C  0.83445778  0.52499369  0.97454177     0.12200
C398        C  0.79816390  0.58643129  0.94048408     0.62900
H399        H  0.72284467  0.58904205  0.96962726     0.12300
C400        C  0.69509656  0.47417404  0.04531030     0.55000
H401        H  0.77457903  0.47621349  0.01813638     0.08100
C402        C  0.88219473  0.55540012  0.98769709    -0.05700
C403        C  0.92150298  0.54526483  0.98213308    -0.06500
C404        C  0.91402899  0.50429776  0.96511228    -0.16100
C405        C  0.86694661  0.47570380  0.95071896    -0.01700
C406        C  0.82813144  0.48683781  0.95551007    -0.09200
C407        C  0.88997753  0.59439645  0.01026452     0.65100
H408        H  0.95650036  0.56536701  0.99410119     0.10500
C409        C  0.85497860  0.43141006  0.93133019     0.63500
H410        H  0.79156392  0.46359433  0.94551755     0.07900
F411        F  0.71755668  0.44799570  0.05687616    -0.19600
F412        F  0.64592871  0.43970537  0.03817718    -0.15800
F413        F  0.69583108  0.50630199  0.06632436    -0.19300
F414        F  0.79136531  0.55136636  0.91975655    -0.22700
F415        F  0.84900068  0.61826845  0.94474775    -0.24200
F416        F  0.77754750  0.61491245  0.92978622    -0.18100
F417        F  0.81831707  0.38760530  0.94404474    -0.20600
F418        F  0.89636699  0.42603224  0.92624373    -0.21800
F419        F  0.83711087  0.43809735  0.90483766    -0.19000
F420        F  0.94015464  0.62406075  0.01771139    -0.19100
F421        F  0.86397715  0.57017703  0.03496862    -0.22900
F422        F  0.87274521  0.62590030  0.00001587    -0.24500
C423        C  0.32652257  0.45240790  0.02306503    -0.11300
C424        C  0.32223738  0.49596065  0.02265040     0.11300
C425        C  0.36438018  0.54203294  0.03159274    -0.03100
C426        C  0.41126960  0.54394470  0.03629856    -0.08600
C427        C  0.41646354  0.50089882  0.03356971    -0.16600
C428        C  0.37246574  0.45392195  0.02894962     0.02300
C429        C  0.27185291  0.49012867  0.01459030     0.12200
C430        C  0.35974690  0.58861192  0.03628988     0.62900
H431        H  0.44480672  0.57973348  0.04026964     0.12300
C432        C  0.37175029  0.40411541  0.02958610     0.55000
H433        H  0.29348660  0.41656919  0.01823453     0.08100
C434        C  0.25709489  0.49282514  0.98550377    -0.05700
C435        C  0.20678759  0.48058794  0.97935025    -0.06500
C436        C  0.16984005  0.46205916  0.00082186    -0.16100
C437        C  0.18489898  0.45876843  0.02993919    -0.01700
C438        C  0.23565606  0.47379955  0.03619401    -0.09200
C439        C  0.29339500  0.50535123  0.96076727     0.65100
H440        H  0.19523524  0.48260061  0.95729118     0.10500
C441        C  0.14786176  0.43865024  0.05463789     0.63500
H442        H  0.24720766  0.47041024  0.05804852     0.07900
F443        F  0.35482189  0.38126616  0.00303202    -0.19600
F444        F  0.33890534  0.37353514  0.05064599    -0.15800
F445        F  0.41821925  0.40885790  0.03571363    -0.19300
F446        F  0.32512382  0.57885406  0.05766593    -0.22700
F447        F  0.34392777  0.60188652  0.01112917    -0.24200
F448        F  0.40502059  0.62935049  0.04487810    -0.18100
F449        F  0.11694600  0.38724859  0.05175629    -0.20600
F450        F  0.11922934  0.46201362  0.05434340    -0.21800
F451        F  0.17172499  0.44727504  0.08143495    -0.19000
F452        F  0.27209937  0.50720880  0.93436567    -0.19100
F453        F  0.30749336  0.46893358  0.95916613    -0.22900
F454        F  0.33568163  0.55155427  0.96512240    -0.24500
C455        C  0.67008371  0.67184585  0.87178733    -0.11300
C456        C  0.68012832  0.63798057  0.85730071     0.11300
C457        C  0.67953177  0.59707797  0.87252923    -0.03100
C458        C  0.66304501  0.58818645  0.90134426    -0.05900
C459        C  0.64945045  0.62016030  0.91507858    -0.16600
C460        C  0.65518184  0.66385658  0.90076227     0.02300
C461        C  0.69274973  0.64773965  0.82633291     0.12200
C462        C  0.69713660  0.56392940  0.85857314     0.62900
H463        H  0.65985157  0.55586322  0.91321776     0.12300
C464        C  0.64606106  0.70194225  0.91627685     0.55000
H465        H  0.67313149  0.70414369  0.85996095     0.08100
C466        C  0.65543055  0.62860337  0.80418545    -0.05700
C467        C  0.67054870  0.63917023  0.77514362    -0.06500
C468        C  0.72127153  0.66902585  0.76810360    -0.16100
C469        C  0.75800243  0.69141831  0.79047360    -0.01700
C470        C  0.74294233  0.67988180  0.81935619    -0.09200
C471        C  0.60007209  0.59778264  0.81131088     0.65100
H472        H  0.64307852  0.62330716  0.75771240     0.10500
C473        C  0.81270069  0.72822809  0.78404103     0.63500
H474        H  0.77033267  0.69555487  0.83684381     0.07900
F475        F  0.59591161  0.68063128  0.92306205    -0.19600
F476        F  0.65904050  0.74439373  0.89942893    -0.15800
F477        F  0.67469807  0.71698456  0.94150263    -0.19300
F478        F  0.74673613  0.59302069  0.85067894    -0.22700
F479        F  0.66848289  0.54102420  0.83416401    -0.24200
F480        F  0.69375307  0.52658743  0.87732182    -0.18100
F481        F  0.83933485  0.75279784  0.80878240    -0.20600
F482        F  0.81590118  0.76445663  0.76451615    -0.21800
F483        F  0.83520910  0.70291575  0.77260433    -0.19000
F484        F  0.57008762  0.58402974  0.78658951    -0.19100
F485        F  0.58645712  0.62571514  0.82836530    -0.22900
F486        F  0.59061033  0.55439947  0.82612698    -0.24500
C487        C  0.84300673  0.90540954  0.64509521    -0.11300
C488        C  0.81991696  0.92839552  0.65948095     0.11300
C489        C  0.79206898  0.90525884  0.68488945    -0.03100
C490        C  0.78508365  0.85776103  0.69356602    -0.05900
C491        C  0.80801953  0.83490216  0.67895749    -0.16600
C492        C  0.83998812  0.86056718  0.65553652     0.02300
C493        C  0.82789776  0.97798078  0.64842414     0.12200
C494        C  0.77007103  0.93056842  0.70288457     0.62900
H495        H  0.76048169  0.83741693  0.71132758     0.12300
C496        C  0.87264615  0.84177693  0.64270137     0.55000
H497        H  0.86434713  0.92346796  0.62587869     0.08100
C498        C  0.87495677  0.02255926  0.65124366    -0.05700
C499        C  0.87830992  0.06873123  0.64334550    -0.06500
C500        C  0.83591345  0.07244633  0.63515001    -0.16100
C501        C  0.78974529  0.02780837  0.63060181    -0.01700
C502        C  0.78696814  0.98092175  0.63623066    -0.09200
C503        C  0.92067539  0.02219706  0.66452212     0.65100
H504        H  0.91354541  0.10284755  0.64603345     0.10500
C505        C  0.74343219  0.03021522  0.62105652     0.63500
H506        H  0.75183062  0.94631968  0.63309975     0.07900
F507        F  0.90578240  0.84294846  0.66383282    -0.19600
F508        F  0.90020868  0.87118677  0.61958873    -0.15800
F509        F  0.84352869  0.79313521  0.63314369    -0.19300
F510        F  0.73269992  0.93367267  0.68736424    -0.22700
F511        F  0.80733215  0.97847548  0.71034341    -0.24200
F512        F  0.74941780  0.90411090  0.72822249    -0.18100
F513        F  0.70279826  0.98275493  0.61623428    -0.20600
F514        F  0.75320431  0.05772825  0.59559655    -0.21800
F515        F  0.73061280  0.05328224  0.64214176    -0.19000
F516        F  0.96041954  0.07041076  0.66869995    -0.19100
F517        F  0.93677961  0.99752362  0.64654316    -0.22900
F518        F  0.90877159  0.99819864  0.69120271    -0.24500
C519        C  0.83470250  0.49936994  0.66340984    -0.11300
C520        C  0.83980920  0.47930902  0.68968892     0.11300
C521        C  0.84404674  0.50480859  0.71586974    -0.03100
C522        C  0.83726313  0.54735805  0.71485497    -0.05900
C523        C  0.83000810  0.56611916  0.68831709    -0.16600
C524        C  0.83187190  0.54342494  0.66192961     0.02300
C525        C  0.84840651  0.43607779  0.68693097     0.12200
C526        C  0.85619308  0.48757421  0.74434658     0.62900
H527        H  0.83655013  0.56552362  0.73464099     0.12300
C528        C  0.83445831  0.56663992  0.63202022     0.55000
H529        H  0.83459653  0.48052047  0.64370069     0.08100
C530        C  0.80857481  0.38720766  0.68070685    -0.05700
C531        C  0.81990205  0.35156265  0.66937735    -0.06500
C532        C  0.86946799  0.36358061  0.66316138    -0.16100
C533        C  0.90918008  0.41382215  0.66846175    -0.01700
C534        C  0.89765811  0.44822962  0.68119217    -0.09200
C535        C  0.75420970  0.37354581  0.68479887     0.65100
H536        H  0.78957170  0.31395282  0.66485504     0.10500
C537        C  0.96329738  0.43311095  0.65959977     0.63500
H538        H  0.92691020  0.48672489  0.68492472     0.07900
F539        F  0.79116753  0.56807934  0.62523712    -0.19600
F540        F  0.84099163  0.53979988  0.61026758    -0.15800
F541        F  0.87514976  0.61465922  0.63131563    -0.19300
F542        F  0.90241254  0.49025492  0.74266679    -0.22700
F543        F  0.82016172  0.43847360  0.75029076    -0.24200
F544        F  0.85808288  0.51734594  0.76716765    -0.18100
F545        F  0.96471915  0.42284622  0.63066331    -0.20600
F546        F  0.98468537  0.41081646  0.67654951    -0.21800
F547        F  0.99264527  0.48474510  0.66290210    -0.19000
F548        F  0.72159687  0.32273934  0.68045169    -0.19100
F549        F  0.74143733  0.40030722  0.66530860    -0.22900
F550        F  0.74752620  0.38497750  0.71259626    -0.24500
C551        C  0.72698810  0.72288450  0.53297992    -0.11300
C552        C  0.68253883  0.68357162  0.52148668     0.11300
C553        C  0.65041688  0.64283162  0.53961812    -0.03100
C554        C  0.66402394  0.64347572  0.56912312    -0.05900
C555        C  0.70870126  0.68318174  0.58064924    -0.16600
C556        C  0.74012202  0.72407483  0.56235927     0.02300
C557        C  0.67043519  0.68847396  0.49061765     0.12200
C558        C  0.60276035  0.59862799  0.52767000     0.62900
H559        H  0.64068638  0.61217538  0.58321667     0.12300
C560        C  0.78634775  0.76991352  0.57394569     0.55000
H561        H  0.75107129  0.75340959  0.51862911     0.08100
C562        C  0.65163362  0.72086539  0.48240429    -0.05700
C563        C  0.64597462  0.72849696  0.45277783    -0.06500
C564        C  0.65982350  0.70617967  0.43098591    -0.16100
C565        C  0.67901911  0.67378002  0.43931178    -0.01700
C566        C  0.68370857  0.66539863  0.46913491    -0.09200
C567        C  0.63919613  0.74869354  0.50491691     0.65100
H568        H  0.63141462  0.75313162  0.44641462     0.10500
C569        C  0.69666143  0.64989816  0.41715618     0.63500
H570        H  0.69922559  0.64181432  0.47604134     0.07900
F571        F  0.80614477  0.80886200  0.55386922    -0.19600
F572        F  0.82286431  0.75742683  0.58095812    -0.15800
F573        F  0.77373001  0.78715840  0.59812614    -0.19300
F574        F  0.61476133  0.57473833  0.50667962    -0.22700
F575        F  0.57194191  0.61523246  0.51548940    -0.24200
F576        F  0.57617691  0.56368885  0.54905049    -0.18100
F577        F  0.71844328  0.62410151  0.43014919    -0.20600
F578        F  0.73210786  0.68684767  0.39951435    -0.21800
F579        F  0.65640587  0.61593393  0.40049560    -0.19000
F580        F  0.61702827  0.77455045  0.49251917    -0.19100
F581        F  0.68258363  0.78326155  0.51909048    -0.22900
F582        F  0.60639143  0.71505460  0.52495863    -0.24500
C583        C  0.40779430  0.83093116  0.34658209    -0.11300
C584        C  0.43537803  0.85313376  0.32137354     0.11300
C585        C  0.42035840  0.88027602  0.30245911    -0.03100
C586        C  0.38057940  0.88778761  0.31067988    -0.05900
C587        C  0.35382165  0.86700426  0.33630479    -0.16600
C588        C  0.36648539  0.83668845  0.35416119     0.02300
C589        C  0.48007566  0.84772585  0.31529280     0.12200
C590        C  0.44582405  0.90021437  0.27353158     0.62900
H591        H  0.36930410  0.90959629  0.29672945     0.12300
C592        C  0.33671559  0.81105398  0.38106440     0.55000
H593        H  0.41904981  0.80896964  0.36034732     0.08100
C594        C  0.52849022  0.88217172  0.32629234    -0.05700
C595        C  0.56887744  0.87394388  0.32060733    -0.06500
C596        C  0.56168497  0.83109754  0.30577683    -0.16100
C597        C  0.51382404  0.79823051  0.29345620    -0.01700
C598        C  0.47369799  0.80701096  0.29853248    -0.09200
C599        C  0.53654563  0.92472013  0.34619935     0.65100
H600        H  0.60511936  0.89765051  0.33073741     0.10500
C601        C  0.50306983  0.75229310  0.27589139     0.63500
H602        H  0.43667117  0.78104286  0.28995677     0.07900
F603        F  0.35817097  0.78765553  0.39702600    -0.19600
F604        F  0.28860865  0.77486901  0.37304080    -0.15800
F605        F  0.33434732  0.84604126  0.39864375    -0.19300
F606        F  0.43984780  0.86050459  0.25674570    -0.22700
F607        F  0.49649267  0.93307869  0.27766674    -0.24200
F608        F  0.42561229  0.92549068  0.25829974    -0.18100
F609        F  0.47109768  0.70912598  0.29109169    -0.20600
F610        F  0.54613748  0.75062570  0.26957816    -0.21800
F611        F  0.48017417  0.75303081  0.24989778    -0.19000
F612        F  0.58679795  0.95552535  0.35311245    -0.19100
F613        F  0.51088584  0.90470482  0.37163112    -0.22900
F614        F  0.51911840  0.95427571  0.33320746    -0.24500
C615        C  0.90423749  0.81429810  0.32521521    -0.11300
C616        C  0.91755188  0.81567487  0.35469554     0.11300
C617        C  0.88198826  0.80884766  0.37589238    -0.03100
C618        C  0.83303524  0.79650940  0.36686933    -0.05900
C619        C  0.81866651  0.79265133  0.33744361    -0.16600
C620        C  0.85546962  0.80341037  0.31611382     0.02300
C621        C  0.96872553  0.82355793  0.36252020     0.12200
C622        C  0.89545997  0.81419071  0.40796079     0.62900
H623        H  0.80515181  0.78964817  0.38299950     0.12300
C624        C  0.84327910  0.80220737  0.28400580     0.55000
H625        H  0.93244596  0.82117051  0.30930796     0.08100
C626        C  0.97955275  0.78351978  0.36217165    -0.05700
C627        C  0.02963977  0.79435097  0.36649755    -0.06500
C628        C  0.06943651  0.84369582  0.37044654    -0.16100
C629        C  0.05781052  0.88296618  0.37338047    -0.01700
C630        C  0.00774624  0.87229410  0.36900411    -0.09200
C631        C  0.93884553  0.72996175  0.35555145     0.65100
H632        H  0.03882793  0.76470058  0.36432298     0.10500
C633        C  0.09674195  0.93688546  0.38026981     0.63500
H634        H  0.99932379  0.90280011  0.36973995     0.07900
F635        F  0.88335321  0.81017942  0.26707402    -0.19600
F636        F  0.83167955  0.83961508  0.27742374    -0.15800
F637        F  0.80289512  0.75585469  0.27680627    -0.19300
F638        F  0.93591542  0.86139480  0.41331122    -0.22700
F639        F  0.90776369  0.77809576  0.41654912    -0.24200
F640        F  0.85610060  0.80859059  0.42475871    -0.18100
F641        F  0.09845956  0.96803025  0.35774060    -0.20600
F642        F  0.14419752  0.94330530  0.38480164    -0.21800
F643        F  0.08322451  0.95134590  0.40523381    -0.19000
F644        F  0.95662434  0.69629784  0.35793251    -0.19100
F645        F  0.92074735  0.72751715  0.32761423    -0.22900
F646        F  0.89977421  0.71479074  0.37464566    -0.24500
C647        C  0.14137449  0.14963231  0.37149610    -0.11300
C648        C  0.18849744  0.16238623  0.36051559     0.11300
C649        C  0.22343898  0.21380989  0.35493248    -0.03100
C650        C  0.20891071  0.25044533  0.35942353    -0.05900
C651        C  0.15984607  0.23686619  0.36735107    -0.16600
C652        C  0.12639955  0.18588601  0.37510609     0.02300
C653        C  0.19696339  0.12038181  0.35154078     0.12200
C654        C  0.27435859  0.22957880  0.34210603     0.62900
H655        H  0.23377780  0.28911887  0.35326102     0.12300
C656        C  0.07311988  0.16720042  0.38509038     0.55000
H657        H  0.11473867  0.11030982  0.37567492     0.08100
C658        C  0.21158913  0.09396444  0.37136935    -0.05700
C659        C  0.21659321  0.05341385  0.36115138    -0.06500
C660        C  0.20642117  0.03784139  0.33213050    -0.16100
C661        C  0.19192845  0.06420291  0.31233811    -0.01700
C662        C  0.18675750  0.10472158  0.32249613    -0.09200
C663        C  0.22091857  0.10782594  0.40322551     0.65100
H664        H  0.22783271  0.03283223  0.37594279     0.10500
C665        C  0.18391729  0.05066420  0.28052150     0.63500
H666        H  0.17502418  0.12496153  0.30772480     0.07900
F667        F  0.06441452  0.13811900  0.40985582    -0.19600
F668        F  0.03970532  0.13785195  0.36361366    -0.15800
F669        F  0.06408035  0.20602891  0.39154188    -0.19300
F670        F  0.26818680  0.20851082  0.31502709    -0.22700
F671        F  0.30074127  0.21368183  0.35979905    -0.24200
F672        F  0.30289435  0.28132276  0.33901835    -0.18100
F673        F  0.14776154  0.00066240  0.27728295    -0.20600
F674        F  0.22847995  0.05836628  0.26900110    -0.21800
F675        F  0.16834319  0.07972872  0.26497571    -0.19000
F676        F  0.23742234  0.07912674  0.41836397    -0.19100
F677        F  0.17696886  0.09998315  0.41562395    -0.22900
F678        F  0.25697941  0.15785994  0.40626454    -0.24500
C679        C  0.09928736  0.64894876  0.31396026    -0.11300
C680        C  0.13732841  0.63882418  0.30632807     0.11300
C681        C  0.18145329  0.67790346  0.29357159    -0.03100
C682        C  0.18845430  0.72743711  0.29225536    -0.05900
C683        C  0.15177520  0.73833103  0.30216645    -0.16600
C684        C  0.10525376  0.69758433  0.31154657     0.02300
C685        C  0.12965782  0.58702140  0.31229860     0.12200
C686        C  0.22109644  0.66717308  0.28193808     0.62900
H687        H  0.22394109  0.75850639  0.28518637     0.12300
C688        C  0.06131185  0.70369882  0.32042462     0.55000
H689        H  0.06466292  0.61850962  0.32257551     0.08100
C690        C  0.13820419  0.57205959  0.34012855    -0.05700
C691        C  0.12747692  0.52182628  0.34466491    -0.06500
C692        C  0.10869742  0.48597378  0.32236593    -0.16100
C693        C  0.10219740  0.50187972  0.29405899    -0.01700
C694        C  0.11182023  0.55178831  0.28987150    -0.09200
C695        C  0.15832100  0.60906299  0.36504292     0.65100
H696        H  0.13281536  0.50991250  0.36601402     0.10500
C697        C  0.08655645  0.46739326  0.26787937     0.63500
H698        H  0.10519960  0.56384663  0.26886157     0.07900
F699        F  0.05462677  0.69548454  0.34993639    -0.19600
F700        F  0.01826244  0.66856165  0.30615759    -0.15800
F701        F  0.06787875  0.75075441  0.31364436    -0.19300
F702        F  0.20075595  0.63307033  0.25951555    -0.22700
F703        F  0.23793458  0.64710720  0.30355294    -0.24200
F704        F  0.26195952  0.71031658  0.27141591    -0.18100
F705        F  0.03680568  0.43042712  0.26999936    -0.20600
F706        F  0.11641481  0.44536350  0.26620163    -0.21800
F707        F  0.09165524  0.49340609  0.24218866    -0.19000
F708        F  0.16746764  0.58816480  0.38963996    -0.19100
F709        F  0.12390026  0.62388097  0.37187522    -0.22900
F710        F  0.20290947  0.65098876  0.35732510    -0.24500
C711        C  0.35176830  0.00094661  0.20268675    -0.11300
C712        C  0.31592398  0.97489339  0.18083894     0.11300
C713        C  0.26621905  0.93969983  0.18867497    -0.03100
C714        C  0.25407695  0.93169883  0.21820447    -0.05900
C715        C  0.28982262  0.95698354  0.24037093    -0.16600
C716        C  0.33966343  0.99303481  0.23242510     0.02300
C717        C  0.33263070  0.98063880  0.15018053     0.12200
C718        C  0.22640656  0.90907720  0.16599154     0.62900
H719        H  0.21625797  0.90407240  0.22420536     0.12300
C720        C  0.37983021  0.02381512  0.25485744     0.55000
H721        H  0.38980564  0.02694406  0.19616707     0.08100
C722        C  0.33992785  0.02148638  0.13198233    -0.05700
C723        C  0.35652603  0.02355292  0.10332138    -0.06500
C724        C  0.36630200  0.98638778  0.09263053    -0.16100
C725        C  0.35684950  0.94469624  0.11075004    -0.01700
C726        C  0.34120103  0.94320501  0.13929027    -0.09200
C727        C  0.33052515  0.06264388  0.14290643     0.65100
H728        H  0.36356810  0.05511420  0.08935014     0.10500
C729        C  0.36519307  0.90254809  0.10082275     0.63500
H730        H  0.33607666  0.91268887  0.15366812     0.07900
F731        F  0.36303286  0.04833419  0.27255512    -0.19600
F732        F  0.42376399  0.05990433  0.24215184    -0.15800
F733        F  0.39116491  0.99270353  0.27147105    -0.19300
F734        F  0.23697913  0.87426921  0.15401480    -0.22700
F735        F  0.22528626  0.94021714  0.14429879    -0.24200
F736        F  0.17898797  0.88326464  0.17776922    -0.18100
F737        F  0.34050619  0.86005193  0.11814950    -0.20600
F738        F  0.41588606  0.91898001  0.10231238    -0.21800
F739        F  0.34774467  0.88881339  0.07276044    -0.19000
F740        F  0.33833286  0.09806127  0.12158675    -0.19100
F741        F  0.36256751  0.08713980  0.16592655    -0.22900
F742        F  0.28152698  0.04193988  0.15198311    -0.24500
C743        C  0.23583788  0.74823227  0.98593174    -0.11300
C744        C  0.20943933  0.74038684  0.01179118     0.11300
C745        C  0.22511807  0.78044028  0.03145271    -0.03100
C746        C  0.26439384  0.82812104  0.02357362    -0.05900
C747        C  0.29133053  0.83690412  0.99765633    -0.16600
C748        C  0.27713304  0.79569073  0.97858066     0.02300
C749        C  0.16539024  0.68984394  0.01785933     0.12200
C750        C  0.20132712  0.77254956  0.06104697     0.62900
H751        H  0.27493489  0.85899132  0.03830337     0.12300
C752        C  0.30449369  0.80132044  0.95053389     0.55000
H753        H  0.22374132  0.71650678  0.97155761     0.08100
C754        C  0.11728459  0.67432132  0.00545495    -0.05700
C755        C  0.07807861  0.62490173  0.01086810    -0.06500
C756        C  0.08559991  0.59095401  0.02820566    -0.16100
C757        C  0.13215301  0.60869491  0.04301434    -0.01700
C758        C  0.17178100  0.65719794  0.03687752    -0.09200
C759        C  0.10823026  0.70884766  0.98529827     0.65100
H760        H  0.04298820  0.61081488  0.99898034     0.10500
C761        C  0.14184101  0.57697489  0.06484194     0.63500
H762        H  0.20832623  0.66949534  0.04683844     0.07900
F763        F  0.28299204  0.75701604  0.93490782    -0.19600
F764        F  0.35381187  0.81435861  0.95655327    -0.15800
F765        F  0.30307685  0.83806984  0.93330233    -0.19300
F766        F  0.21155055  0.74032760  0.07741503    -0.22700
F767        F  0.14993465  0.75196114  0.05811143    -0.24200
F768        F  0.21980695  0.81718122  0.07613818    -0.18100
F769        F  0.17748467  0.56643940  0.05424936    -0.20600
F770        F  0.09867991  0.53239615  0.07108682    -0.21800
F771        F  0.15975262  0.60341947  0.09041291    -0.19000
F772        F  0.05810281  0.68799858  0.97739622    -0.19100
F773        F  0.13572238  0.71775793  0.96038934    -0.22900
F774        F  0.12268884  0.75416097  0.99880214    -0.24500
C775        C  0.68909895  0.10944671  0.98138391    -0.11300
C776        C  0.70070801  0.15992506  0.97877962     0.11300
C777        C  0.66202549  0.17083231  0.97177098    -0.03100
C778        C  0.61208561  0.13115803  0.97142890    -0.05900
C779        C  0.59940805  0.08065453  0.97658905    -0.16600
C780        C  0.63891520  0.06938528  0.98005248     0.02300
C781        C  0.75344513  0.20095413  0.98376805     0.12200
C782        C  0.67347440  0.22425657  0.96477675     0.62900
H783        H  0.58226535  0.13986359  0.96858732     0.12300
C784        C  0.62820035  0.01579308  0.98356374     0.55000
H785        H  0.71958732  0.10185154  0.98557267     0.08100
C786        C  0.77091004  0.22368064  0.01120379    -0.05700
C787        C  0.81945257  0.26587068  0.01363067    -0.06500
C788        C  0.85261874  0.28356162  0.99019110    -0.16100
C789        C  0.83580621  0.25809569  0.96307727    -0.01700
C790        C  0.78604164  0.21809265  0.96032733    -0.09200
C791        C  0.73912807  0.20205873  0.03803431     0.65100
H792        H  0.83238090  0.28445468  0.03430037     0.10500
C793        C  0.86985551  0.27164932  0.93712364     0.63500
H794        H  0.77204564  0.19918363  0.93979146     0.07900
F795        F  0.60205789  0.99553254  0.00878263    -0.19600
F796        F  0.67178201  0.01275595  0.98499156    -0.15800
F797        F  0.60014212  0.98805421  0.96002512    -0.19300
F798        F  0.70383126  0.24177834  0.94078076    -0.22700
F799        F  0.69791093  0.25577946  0.98783767    -0.24200
F800        F  0.63028041  0.22660725  0.95866820    -0.18100
F801        F  0.90726536  0.26008112  0.94345172    -0.20600
F802        F  0.89065462  0.32234785  0.93058232    -0.21800
F803        F  0.84441592  0.24495567  0.91262259    -0.19000
F804        F  0.76300012  0.22982530  0.06253332    -0.19100
F805        F  0.72985791  0.15338936  0.04262226    -0.22900
F806        F  0.69392957  0.20134828  0.03459651    -0.24500
C807        C  0.47202288  0.31311282  0.97093751    -0.11300
C808        C  0.51286178  0.30692427  0.97913300     0.11300
C809        C  0.56166338  0.34930482  0.97937373    -0.03100
C810        C  0.56676718  0.39769745  0.97634554    -0.05900
C811        C  0.52483894  0.40419699  0.97139504    -0.16600
C812        C  0.47717776  0.36110524  0.96683632     0.02300
C813        C  0.50257804  0.25544926  0.98749090     0.12200
C814        C  0.60769099  0.34302288  0.98207974     0.62900
H815        H  0.60326543  0.43086174  0.97925332     0.12300
C816        C  0.43031796  0.36317692  0.95830196     0.55000
H817        H  0.43516543  0.28001928  0.96895604     0.08100
C818        C  0.49101138  0.23699803  0.01635271    -0.05700
C819        C  0.47663199  0.18614307  0.02215425    -0.06500
C820        C  0.47112241  0.15303187  0.99986178    -0.16100
C821        C  0.48340420  0.17196644  0.97098627    -0.01700
C822        C  0.49927734  0.22304570  0.96547763    -0.09200
C823        C  0.49168951  0.27031651  0.04065203     0.65100
H824        H  0.46694503  0.17115056  0.04393805     0.10500
C825        C  0.47795836  0.13852702  0.94552108     0.63500
H826        H  0.50716365  0.23772830  0.94354031     0.07900
F827        F  0.39300038  0.33496861  0.97782777    -0.19600
F828        F  0.41446612  0.34234479  0.93111581    -0.15800
F829        F  0.43745765  0.41151628  0.95740460    -0.19300
F830        F  0.60898428  0.31628709  0.95854481    -0.22700
F831        F  0.60621561  0.31700588  0.00712645    -0.24200
F832        F  0.65161492  0.38898658  0.98258257    -0.18100
F833        F  0.42789621  0.11024956  0.93763620    -0.20600
F834        F  0.49634562  0.10660869  0.95269805    -0.21800
F835        F  0.50411532  0.16662645  0.92167883    -0.19000
F836        F  0.47949859  0.24511763  0.06700437    -0.19100
F837        F  0.45728181  0.28610728  0.03459852    -0.22900
F838        F  0.53884423  0.31204117  0.04349522    -0.24500
C839        C  0.49491924  0.73042868  0.00086258    -0.11300
C840        C  0.53140513  0.76970392  0.01783464     0.11300
C841        C  0.57419494  0.76749848  0.02764481    -0.03100
C842        C  0.58048730  0.72727657  0.01853889    -0.05900
C843        C  0.54527833  0.68899100  0.00026819    -0.16600
C844        C  0.50145359  0.69047207  0.99130361     0.02300
C845        C  0.52610797  0.81508238  0.02197806     0.12200
C846        C  0.61262320  0.80705310  0.04792483     0.62900
H847        H  0.61309257  0.72516664  0.02605037     0.12300
C848        C  0.46327888  0.65225146  0.97037892     0.55000
H849        H  0.46214073  0.73277963  0.99399181     0.08100
C850        C  0.53632633  0.85001763  0.99907688    -0.05700
C851        C  0.52457839  0.88852334  0.00257609    -0.06500
C852        C  0.50384908  0.89407647  0.02815473    -0.16100
C853        C  0.49576634  0.86051913  0.05152460    -0.01700
C854        C  0.50737300  0.82150212  0.04813709    -0.09200
C855        C  0.55817281  0.84579396  0.97064199     0.65100
H856        H  0.52832589  0.91283044  0.98439064     0.10500
C857        C  0.47125780  0.86344411  0.07881824     0.63500
H858        H  0.49926524  0.79404500  0.06527547     0.07900
F859        F  0.48724421  0.64975029  0.94593333    -0.19600
F860        F  0.42741078  0.66485136  0.96163147    -0.15800
F861        F  0.43874316  0.60541985  0.98337926    -0.19300
F862        F  0.59072386  0.80386997  0.07432178    -0.22700
F863        F  0.62977029  0.85473024  0.03638768    -0.24200
F864        F  0.65371120  0.80042213  0.05274277    -0.18100
F865        F  0.42173210  0.84920758  0.07262469    -0.20600
F866        F  0.49618333  0.91222719  0.08908987    -0.21800
F867        F  0.47244814  0.83199999  0.10036762    -0.19000
F868        F  0.56899276  0.88601052  0.95228373    -0.19100
F869        F  0.52444420  0.80233019  0.95637830    -0.22900
F870        F  0.60220346  0.84480138  0.97598340    -0.24500
C871        C  0.33338898  0.98899126  0.79696430    -0.11300
C872        C  0.36158075  0.02860578  0.81617782     0.11300
C873        C  0.38254911  0.07890156  0.80612451    -0.03100
C874        C  0.37293882  0.08776186  0.77728862    -0.05900
C875        C  0.34359818  0.04826038  0.75801349    -0.16600
C876        C  0.32345013  0.99771799  0.76806674     0.02300
C877        C  0.36925909  0.01636797  0.84666172     0.12200
C878        C  0.41533392  0.12305750  0.82573565     0.62900
H879        H  0.38882743  0.12611251  0.76947260     0.12300
C880        C  0.29037660  0.95298895  0.74894844     0.55000
H881        H  0.31876426  0.95086827  0.80501941     0.08100
C882        C  0.33309311  0.00456262  0.86834545    -0.05700
C883        C  0.34478997  0.99741660  0.89714945    -0.06500
C884        C  0.39046639  0.99933320  0.90483429    -0.16100
C885        C  0.42488255  0.00691256  0.88219850    -0.01700
C886        C  0.41376075  0.01628533  0.85373120    -0.09200
C887        C  0.28217562  0.99912789  0.86092245     0.65100
H888        H  0.31778917  0.98990131  0.91392626     0.10500
C889        C  0.47278302  0.00427786  0.88723322     0.63500
H890        H  0.43992414  0.02373976  0.83643717     0.07900
F891        F  0.27103331  0.90786361  0.76404856    -0.19600
F892        F  0.31803411  0.95078505  0.72630816    -0.15800
F893        F  0.25035730  0.95749957  0.73811664    -0.19300
F894        F  0.45866140  0.12194354  0.83320310    -0.22700
F895        F  0.38986062  0.12041410  0.85064382    -0.24200
F896        F  0.42907798  0.16885452  0.81235219    -0.18100
F897        F  0.49779391  0.00918561  0.86170260    -0.20600
F898        F  0.46124457  0.95809699  0.89928758    -0.21800
F899        F  0.50530550  0.04269851  0.90536619    -0.19000
F900        F  0.25243134  0.98782076  0.88510285    -0.19100
F901        F  0.25715215  0.96061476  0.84124268    -0.22900
F902        F  0.28812518  0.04345421  0.84893082    -0.24500
C903        C  0.68088118  0.20460845  0.70795144    -0.11300
C904        C  0.64235812  0.16277848  0.69338183     0.11300
C905        C  0.65054633  0.12291858  0.68532483    -0.03100
C906        C  0.69800915  0.12778302  0.69050906    -0.05900
C907        C  0.73829733  0.17200020  0.70187441    -0.16600
C908        C  0.72887164  0.20954082  0.71276960     0.02300
C909        C  0.59351300  0.16085279  0.68686090     0.12200
C910        C  0.61078854  0.07707033  0.66918177     0.62900
H911        H  0.70580043  0.09924096  0.68256304     0.12300
C912        C  0.76890527  0.25380464  0.72968902     0.55000
H913        H  0.67334685  0.23382946  0.71496782     0.08100
C914        C  0.55449129  0.14182241  0.70718502    -0.05700
C915        C  0.50680848  0.13324245  0.69816184    -0.06500
C916        C  0.49691182  0.14438873  0.66975474    -0.16100
C917        C  0.53764628  0.16856863  0.65039168    -0.01700
C918        C  0.58519268  0.17554966  0.65920144    -0.09200
C919        C  0.56324787  0.13029776  0.73822894     0.65100
H920        H  0.47644373  0.11710831  0.71347392     0.10500
C921        C  0.53116107  0.18632738  0.62059503     0.63500
H922        H  0.61618824  0.19154408  0.64430435     0.07900
F923        F  0.78123577  0.23611290  0.75448891    -0.19600
F924        F  0.75248289  0.28659792  0.73783911    -0.15800
F925        F  0.81150353  0.28035102  0.71340969    -0.19300
F926        F  0.60244975  0.09160272  0.64207621    -0.22700
F927        F  0.56639197  0.05465109  0.68425410    -0.24200
F928        F  0.62534937  0.04124424  0.66550708    -0.18100
F929        F  0.51576542  0.22163803  0.62338417    -0.20600
F930        F  0.49580145  0.14594090  0.60464800    -0.21800
F931        F  0.57551716  0.20866871  0.60537413    -0.19000
F932        F  0.52034985  0.11215829  0.75461998    -0.19100
F933        F  0.60011909  0.17374883  0.75117180    -0.22900
F934        F  0.57840987  0.09455336  0.73869382    -0.24500
C935        C  0.06847858  0.18622955  0.62424810    -0.11300
C936        C  0.10120365  0.18550192  0.64551700     0.11300
C937        C  0.09130435  0.18775745  0.67519561    -0.03100
C938        C  0.04993141  0.19327124  0.68244707    -0.05900
C939        C  0.01753596  0.19463049  0.66112031    -0.16600
C940        C  0.02570088  0.18898958  0.63152151     0.02300
C941        C  0.14466144  0.18039024  0.63643352     0.12200
C942        C  0.12440350  0.18452759  0.69909445     0.62900
H943        H  0.04307678  0.19756701  0.70486219     0.12300
C944        C  0.99064756  0.18464977  0.60670320     0.55000
H945        H  0.07596490  0.18368398  0.60165600     0.08100
C946        C  0.13958845  0.13293431  0.63033016    -0.05700
C947        C  0.18329752  0.12895418  0.62882300    -0.06500
C948        C  0.23131237  0.17024622  0.63465423    -0.16100
C949        C  0.23613483  0.21856669  0.63788469    -0.01700
C950        C  0.19251089  0.22297309  0.63766665    -0.09200
C951        C  0.08813274  0.08634958  0.62726541     0.65100
H952        H  0.17992253  0.09227689  0.62594810     0.10500
C953        C  0.28533799  0.26347944  0.64667964     0.63500
H954        H  0.19510891  0.25896802  0.64188052     0.07900
F955        F  0.97571681  0.14005794  0.59219042    -0.19600
F956        F  0.01554323  0.22440306  0.58759017    -0.15800
F957        F  0.94802946  0.18434047  0.61572310    -0.19300
F958        F  0.17182675  0.22621781  0.69794382    -0.22700
F959        F  0.12796666  0.14150678  0.69584367    -0.24200
F960        F  0.10532040  0.18266684  0.72628067    -0.18100
F961        F  0.28291129  0.30755621  0.64655522    -0.20600
F962        F  0.32257597  0.26998348  0.62783312    -0.21800
F963        F  0.29688589  0.25497945  0.67452173    -0.19000
F964        F  0.09143003  0.04337689  0.62294561    -0.19100
F965        F  0.06268247  0.09221019  0.60381687    -0.22900
F966        F  0.06066245  0.07913324  0.65202498    -0.24500
C967        C  0.12405186  0.88562400  0.63572239    -0.11300
C968        C  0.08328347  0.88117562  0.65103820     0.11300
C969        C  0.09183461  0.91738487  0.67253137    -0.03100
C970        C  0.14109542  0.95775360  0.67737586    -0.05900
C971        C  0.18251896  0.96280169  0.66198139    -0.16600
C972        C  0.17353076  0.92523146  0.64064687     0.02300
C973        C  0.03300646  0.83512118  0.64635003     0.12200
C974        C  0.04888545  0.91325759  0.69036036     0.62900
H975        H  0.14756226  0.98574414  0.69349045     0.12300
C976        C  0.21508509  0.92503327  0.62310302     0.55000
H977        H  0.11654571  0.85671180  0.62001301     0.08100
C978        C  0.99875376  0.83096118  0.62397048    -0.05700
C979        C  0.94933038  0.78918750  0.62409472    -0.06500
C980        C  0.93373275  0.75155904  0.64562077    -0.16100
C981        C  0.97013060  0.75353599  0.66602777    -0.01700
C982        C  0.01926144  0.79478212  0.66559501    -0.09200
C983        C  0.01426484  0.87081766  0.60042733     0.65100
H984        H  0.92155691  0.78750265  0.60861432     0.10500
C985        C  0.95641238  0.71469673  0.69003702     0.63500
H986        H  0.04659806  0.79779142  0.68183882     0.07900
F987        F  0.23671453  0.96676180  0.60513968    -0.19600
F988        F  0.19735732  0.88308755  0.60558964    -0.15800
F989        F  0.25109699  0.92469420  0.64150244    -0.19300
F990        F  0.02738085  0.86872563  0.70602435    -0.22700
F991        F  0.01294423  0.91421571  0.67223101    -0.24200
F992        F  0.06481412  0.95245972  0.70978997    -0.18100
F993        F  0.99847015  0.71911515  0.70442771    -0.20600
F994        F  0.93050122  0.66687356  0.67859447    -0.21800
F995        F  0.92718337  0.72104922  0.71006489    -0.19000
F996        F  0.97491830  0.86107882  0.58151215    -0.19100
F997        F  0.05265264  0.87195034  0.58465345    -0.22900
F998        F  0.03077989  0.91758439  0.61255647    -0.24500
C999        C  0.57331581  0.42907259  0.66479672    -0.11300
C1000       C  0.54754244  0.42174019  0.69083267     0.11300
C1001       C  0.56292818  0.46273641  0.70974840    -0.03100
C1002       C  0.60125027  0.51070671  0.70095089    -0.05900
C1003       C  0.62594853  0.51932239  0.67409659    -0.16600
C1004       C  0.61236588  0.47697734  0.65601682     0.02300
C1005       C  0.50209850  0.37160811  0.69646063     0.12200
C1006       C  0.53924569  0.45548027  0.73930155     0.62900
H1007       H  0.61237249  0.54202752  0.71547387     0.12300
C1008       C  0.63817816  0.48166191  0.62753246     0.55000
H1009       H  0.56143969  0.39672308  0.65095864     0.08100
C1010       C  0.45539285  0.35850713  0.68295524    -0.05700
C1011       C  0.41561824  0.30872005  0.68548428    -0.06500
C1012       C  0.42018806  0.27149329  0.70118450    -0.16100
C1013       C  0.46585233  0.28563414  0.71645977    -0.01700
C1014       C  0.50618180  0.33559199  0.71389624    -0.09200
C1015       C  0.44842583  0.39625702  0.66443426     0.65100
H1016       H  0.38268902  0.29730662  0.67209596     0.10500
C1017       C  0.47271873  0.24684147  0.73375814     0.63500
H1018       H  0.54207455  0.34605082  0.72415790     0.07900
F1019       F  0.61832632  0.43600906  0.61337744    -0.19600
F1020       F  0.68857813  0.49851362  0.63263932    -0.15800
F1021       F  0.63254435  0.51499852  0.60934593    -0.19300
F1022       F  0.54908928  0.42316438  0.75585065    -0.22700
F1023       F  0.48787981  0.43516518  0.73640789    -0.24200
F1024       F  0.55802685  0.50040855  0.75407443    -0.18100
F1025       F  0.51607603  0.26897331  0.75062550    -0.20600
F1026       F  0.47548679  0.21329111  0.71521017    -0.21800
F1027       F  0.43239882  0.22078468  0.75189816    -0.19000
F1028       F  0.39931692  0.37676863  0.65475117    -0.19100
F1029       F  0.47877899  0.40967181  0.64047247    -0.22900
F1030       F  0.46082834  0.43887906  0.68034426    -0.24500
C1031       C  0.33053809  0.03670489  0.46202403    -0.11300
C1032       C  0.30347347  0.00304874  0.48437897     0.11300
C1033       C  0.26688647  0.95306426  0.47754705    -0.03100
C1034       C  0.25929139  0.93810207  0.44837512    -0.05900
C1035       C  0.28634569  0.97142670  0.42568916    -0.16600
C1036       C  0.32281978  0.02191118  0.43266434     0.02300
C1037       C  0.31316818  0.02149814  0.51479047     0.12200
C1038       C  0.23530120  0.91588731  0.50097024     0.62900
H1039       H  0.23111117  0.89993409  0.44303031     0.12300
C1040       C  0.35442169  0.05990879  0.40964280     0.55000
H1041       H  0.35782340  0.07494478  0.46788116     0.08100
C1042       C  0.35207374  0.02220235  0.53218682    -0.05700
C1043       C  0.35825975  0.03933799  0.56095188    -0.06500
C1044       C  0.32798012  0.05727340  0.57241943    -0.16100
C1045       C  0.28850577  0.05598847  0.55493605    -0.01700
C1046       C  0.28204202  0.03809879  0.52635344    -0.09200
C1047       C  0.38820014  0.00691364  0.52003710     0.65100
H1048       H  0.38826930  0.04075143  0.57438373     0.10500
C1049       C  0.25290119  0.07305720  0.56603549     0.63500
H1050       H  0.25274869  0.03737236  0.51252357     0.07900
F1051       F  0.39127811  0.10449872  0.42167714    -0.19600
F1052       F  0.32432350  0.07115151  0.39195730    -0.15800
F1053       F  0.37794937  0.04046698  0.39316624    -0.19300
F1054       F  0.20521735  0.93204383  0.51347681    -0.22700
F1055       F  0.26578487  0.91212298  0.52216728    -0.24200
F1056       F  0.20456353  0.86818990  0.48995386    -0.18100
F1057       F  0.27779417  0.12494342  0.56819662    -0.20600
F1058       F  0.23472426  0.05191362  0.59289289    -0.21800
F1059       F  0.21195971  0.05888601  0.54760578    -0.19000
F1060       F  0.41985777  0.00529958  0.54131911    -0.19100
F1061       F  0.41725948  0.04143044  0.49914696    -0.22900
F1062       F  0.36224229  0.95975176  0.50766718    -0.24500
loop_ 
_geom_bond_atom_site_label_1 
_geom_bond_atom_site_label_2 
_geom_bond_distance 
_geom_bond_site_symmetry_2 
_ccdc_geom_bond_type 
O1          Cr19   1.948       .  S
O1            C9   1.252       .  A
O2          Cr19   2.027       .  S
O2            C3   1.269       .  A
C3            O4   1.253       .  A
C3         C1044   1.490       .  S
O4          Cr20   1.964       .  S
O5          Cr20   2.057       .  S
O5            C6   1.276       .  A
C6            O7   1.251       .  A
C6          C948   1.493       .  S
O7          Cr21   1.942       .  S
O8          Cr21   2.074       .  S
O8            C9   1.286       .  A
C9          C971   1.515   1_545  S
O10         Cr19   2.026       .  S
O10          C18   1.267       .  A
O11         Cr19   1.951       .  S
O11          C12   1.258       .  A
C12          O13   1.279       .  A
C12         C916   1.503       .  S
O13         Cr20   2.051       .  S
O14         Cr20   1.936       .  S
O14          C15   1.247       .  A
C15          O16   1.281       .  A
C15        C1012   1.488       .  S
O16         Cr21   2.074       .  S
O17         Cr21   1.974       .  S
O17          C18   1.257       .  A
C18         C875   1.499       .  S
Cr19         O22   1.763       .  S
Cr20         O22   1.764       .  S
Cr21         O22   1.761       .  S
O23         Cr41   1.954   1_554  S
O23          C31   1.260   1_554  A
O24         Cr41   2.042   1_544  S
O24          C25   1.272   1_545  A
C25          O26   1.260       .  A
C25         C724   1.496       .  S
O26         Cr42   1.976   1_565  S
O27         Cr42   2.065   1_565  S
O27          C28   1.275       .  A
C28          O29   1.246       .  A
C28         C852   1.486       .  S
O29         Cr43   1.948   1_554  S
O30         Cr43   2.047       .  S
O30          C31   1.277       .  A
C31         C747   1.505       .  S
O32         Cr41   2.042       .  S
O32          C40   1.273       .  A
O33         Cr41   1.952   1_545  S
O33          C34   1.257   1_556  A
C34          O35   1.279       .  A
C34         C820   1.488   1_554  S
O35         Cr42   2.045       .  S
O36         Cr42   1.942       .  S
O36          C37   1.252   1_554  A
C37          O38   1.280       .  A
C37         C779   1.499       .  S
O38         Cr43   2.075   1_545  S
O39         Cr43   1.965       .  S
O39          C40   1.253       .  A
C40         C884   1.509       .  S
Cr41         O44   1.767   1_556  S
Cr42         O44   1.765   1_545  S
Cr43         O44   1.758   1_556  S
O45         Cr63   2.001       .  S
O45          C53   1.268       .  A
O46         Cr63   1.998       .  S
O46          C47   1.260       .  A
C47          O48   1.260       .  A
C47         C715   1.500       .  S
O48         Cr64   1.992       .  S
O49         Cr64   2.035       .  S
O49          C50   1.274       .  A
C50          O51   1.260       .  A
C50         C683   1.494       .  S
O51         Cr65   1.991       .  S
O52         Cr65   2.000       .  S
O52          C53   1.267       .  A
C53         C587   1.489       .  S
O54         Cr63   1.996       .  S
O54          C62   1.258       .  A
O55         Cr63   1.998   1_545  S
O55          C56   1.264   1_545  A
C56          O57   1.269       .  A
C56         C660   1.486   1_565  S
O57         Cr64   2.007       .  S
O58         Cr64   1.987       .  S
O58          C59   1.260       .  A
C59          O60   1.271       .  A
C59         C628   1.489       .  S
O60         Cr65   2.024       .  S
O61         Cr65   1.993       .  S
O61          C62   1.260       .  A
C62        C1035   1.499       .  S
Cr63         O66   1.784       .  S
Cr64         O66   1.772       .  S
Cr65         O66   1.780       .  S
O67         Cr85   1.963       .  S
O67          C75   1.260       .  A
O68         Cr85   2.029       .  S
O68          C69   1.268       .  A
C69          O70   1.251       .  A
C69         C468   1.473       .  S
O70         Cr86   1.954       .  S
O71         Cr86   2.057       .  S
O71          C72   1.270       .  A
C72          O73   1.238       .  A
C72         C523   1.475       .  S
O73         Cr87   1.930       .  S
O74         Cr87   2.052       .  S
O74          C75   1.279       .  A
C75        C1003   1.515       .  S
O76         Cr85   2.043       .  S
O76          C84   1.272       .  A
O77         Cr85   1.955       .  S
O77          C78   1.261       .  A
C78          O79   1.279       .  A
C78         C491   1.477       .  S
O79         Cr86   2.047       .  S
O80         Cr86   1.931       .  S
O80          C81   1.247       .  A
C81          O82   1.280       .  A
C81         C980   1.491       .  S
O82         Cr87   2.077       .  S
O83         Cr87   1.967       .  S
O83          C84   1.255       .  A
C84         C555   1.488       .  S
Cr85         O88   1.766       .  S
Cr86         O88   1.768       .  S
Cr87         O88   1.749       .  S
O89        Cr107   2.001       .  S
O89          C97   1.267       .  A
O90        Cr107   1.977   1_556  S
O90          C91   1.254       .  A
C91          O92   1.258       .  A
C91         C459   1.465       .  S
O92        Cr108   1.989       .  S
O93        Cr108   2.017       .  S
O93          C94   1.269       .  A
C94          O95   1.260   1_556  A
C94         C811   1.477       .  S
O95        Cr109   1.987       .  S
O96        Cr109   2.010       .  S
O96          C97   1.269       .  A
C97         C395   1.498       .  S
O98        Cr107   1.987       .  S
O98         C106   1.257       .  A
O99        Cr107   1.998   1_556  S
O99         C100   1.267       .  A
C100        O101   1.266       .  A
C100        C843   1.493   1_556  S
O101       Cr108   1.994       .  S
O102       Cr108   1.992       .  S
O102        C103   1.260   1_556  A
C103        O104   1.273       .  A
C103        C427   1.492       .  S
O104       Cr109   2.032       .  S
O105       Cr109   1.997       .  S
O105        C106   1.259       .  A
C106        C363   1.474       .  S
Cr107       O110   1.773       .  S
Cr108       O110   1.769   1_556  S
Cr109       O110   1.767       .  S
O111       Cr129   1.977       .  S
O111        C119   1.263       .  A
O112       Cr129   2.022       .  S
O112        C113   1.267       .  A
C113        O114   1.258       .  A
C113        C372   1.493       .  S
O114       Cr130   1.966       .  S
O115       Cr130   2.050       .  S
O115        C116   1.273       .  A
C116        O117   1.249       .  A
C116        C596   1.476       .  S
O117       Cr131   1.946       .  S
O118       Cr131   2.044       .  S
O118        C119   1.275       .  A
C119        C308   1.515       .  S
O120       Cr129   2.025       .  S
O120        C128   1.268       .  A
O121       Cr129   1.976       .  S
O121        C122   1.263       .  A
C122        O123   1.274       .  A
C122        C619   1.500       .  S
O123       Cr130   2.041       .  S
O124       Cr130   1.945       .  S
O124        C125   1.251       .  A
C125        O126   1.276       .  A
C125        C340   1.481       .  S
O126       Cr131   2.061       .  S
O127       Cr131   1.972       .  S
O127        C128   1.260       .  A
C128        C564   1.497       .  S
Cr129       O132   1.760       .  S
Cr130       O132   1.765       .  S
Cr131       O132   1.761       .  S
O133       Cr151   1.985       .  S
O133        C141   1.261       .  A
O134       Cr151   1.999       .  S
O134        C135   1.259       .  A
C135        O136   1.253       .  A
C135        C235   1.476       .  S
O136       Cr152   1.980       .  S
O137       Cr152   2.023       .  S
O137        C138   1.270       .  A
C138        O139   1.263       .  A
C138        C907   1.484       .  S
O139       Cr153   1.982       .  S
O140       Cr153   1.998       .  S
O140        C141   1.269       .  A
C141        C532   1.500       .  S
O142       Cr151   1.997       .  S
O142        C150   1.261       .  A
O143       Cr151   1.996       .  S
O143        C144   1.267       .  A
C144        O145   1.266       .  A
C144        C939   1.474   1_655  S
O145       Cr152   1.987       .  S
O146       Cr152   1.985       .  S
O146        C147   1.257       .  A
C147        O148   1.269       .  A
C147        C500   1.481       .  S
O148       Cr153   2.024       .  S
O149       Cr153   1.993       .  S
O149        C150   1.257       .  A
C150        C267   1.494       .  S
Cr151       O154   1.778       .  S
Cr152       O154   1.780       .  S
Cr153       O154   1.772       .  S
O155       Cr173   1.972   1_554  S
O155        C163   1.258   1_554  A
O156       Cr173   2.021   1_654  S
O156        C157   1.267       .  A
C157        O158   1.259   1_655  A
C157        C203   1.484   1_655  S
O158       Cr174   1.966   1_455  S
O159       Cr174   2.061   1_455  S
O159        C160   1.275       .  A
C160        O161   1.248       .  A
C160        C756   1.478       .  S
O161       Cr175   1.944   1_554  S
O162       Cr175   2.051       .  S
O162        C163   1.278       .  A
C163        C436   1.511   1_556  S
O164       Cr173   2.027       .  S
O164        C172   1.271       .  A
O165       Cr173   1.967   1_655  S
O165        C166   1.258       .  A
C166        O167   1.276   1_556  A
C166        C788   1.503       .  S
O167       Cr174   2.040       .  S
O168       Cr174   1.955   1_556  S
O168        C169   1.252       .  A
C169        O170   1.278       .  A
C169        C404   1.490       .  S
O170       Cr175   2.069   1_655  S
O171       Cr175   1.966       .  S
O171        C172   1.257       .  A
C172        C244   1.490       .  S
Cr173       O176   1.765       .  S
Cr174       O176   1.764   1_654  S
Cr175       O176   1.761       .  S
O177       Cr195   1.956   1_655  S
O177        C185   1.258       .  A
O178       Cr195   2.038       .  S
O178        C179   1.273       .  A
C179        O180   1.257       .  A
C179        C276   1.496       .  S
O180       Cr196   1.956       .  S
O181       Cr196   2.065       .  S
O181        C182   1.278       .  A
C182        O183   1.250       .  A
C182        C651   1.485       .  S
O183       Cr197   1.941       .  S
O184       Cr197   2.053       .  S
O184        C185   1.276   1_455  A
C185        C331   1.501       .  S
O186       Cr195   2.033       .  S
O186        C194   1.273       .  A
O187       Cr195   1.966       .  S
O187        C188   1.256       .  A
C188        O189   1.277       .  A
C188        C692   1.506       .  S
O189       Cr196   2.046       .  S
O190       Cr196   1.947       .  S
O190        C191   1.248       .  A
C191        O192   1.277       .  A
C191        C299   1.486       .  S
O192       Cr197   2.071       .  S
O193       Cr197   1.955       .  S
O193        C194   1.254       .  A
C194        C212   1.489       .  S
Cr195       O198   1.760       .  S
Cr196       O198   1.757       .  S
Cr197       O198   1.760       .  S
C199        C200   1.400   1_655  A
C199        C204   1.408       .  A
C199        H209   1.083       .  S
C200        C205   1.479       .  S
C200        C201   1.413       .  A
C201        C202   1.402       .  A
C201        C206   1.521       .  S
C202        C203   1.405       .  A
C202        H207   1.081       .  S
C203        C204   1.422   1_455  A
C204        C208   1.518       .  S
C205        C210   1.413   1_455  A
C205        C214   1.396       .  A
C206        F222   1.382       .  S
C206        F223   1.381       .  S
C206        F224   1.385       .  S
C208        F219   1.385       .  S
C208        F220   1.382       .  S
C208        F221   1.381       .  S
C210        C211   1.407       .  A
C210        C215   1.519       .  S
C211        C212   1.407   1_655  A
C211        H216   1.083       .  S
C212        C213   1.428       .  A
C213        C214   1.404       .  A
C213        C217   1.522       .  S
C214        H218   1.084       .  S
C215        F228   1.384       .  S
C215        F229   1.383       .  S
C215        F230   1.381       .  S
C217        F225   1.385       .  S
C217        F226   1.384       .  S
C217        F227   1.383       .  S
C231        C232   1.402   1_455  A
C231        C236   1.408       .  A
C231        H241   1.083       .  S
C232        C237   1.488       .  S
C232        C233   1.419       .  A
C233        C234   1.408       .  A
C233        C238   1.519       .  S
C234        C235   1.400       .  A
C234        H239   1.083       .  S
C235        C236   1.419   1_655  A
C236        C240   1.519       .  S
C237        C242   1.417       .  A
C237        C246   1.399   1_655  A
C238        F254   1.382       .  S
C238        F255   1.383       .  S
C238        F256   1.385       .  S
C240        F251   1.382       .  S
C240        F252   1.385       .  S
C240        F253   1.383       .  S
C242        C243   1.409       .  A
C242        C247   1.519       .  S
C243        C244   1.405   1_655  A
C243        H248   1.079       .  S
C244        C245   1.423       .  A
C245        C246   1.407       .  A
C245        C249   1.519       .  S
C246        H250   1.083       .  S
C247        F260   1.385       .  S
C247        F261   1.382       .  S
C247        F262   1.383       .  S
C249        F257   1.384       .  S
C249        F258   1.383       .  S
C249        F259   1.385       .  S
C263        C264   1.398       .  A
C263        C268   1.407       .  A
C263        H273   1.083       .  S
C264        C269   1.491   1_655  S
C264        C265   1.416   1_655  A
C265        C266   1.413   1_455  A
C265        C270   1.518       .  S
C266        C267   1.408       .  A
C266        H271   1.083   1_655  S
C267        C268   1.426       .  A
C268        C272   1.520       .  S
C269        C274   1.415       .  A
C269        C278   1.405   1_455  A
C270        F286   1.382       .  S
C270        F287   1.382       .  S
C270        F288   1.385       .  S
C272        F283   1.385       .  S
C272        F284   1.382       .  S
C272        F285   1.380       .  S
C274        C275   1.406       .  A
C274        C279   1.522       .  S
C275        C276   1.409       .  A
C275        H280   1.083       .  S
C276        C277   1.421       .  A
C277        C278   1.414   1_455  A
C277        C281   1.518   1_455  S
C278        H282   1.083       .  S
C279        F292   1.385       .  S
C279        F293   1.382       .  S
C279        F294   1.382       .  S
C281        F289   1.384       .  S
C281        F290   1.383       .  S
C281        F291   1.384   1_655  S
C295        C296   1.404       .  A
C295        C300   1.409       .  A
C295        H305   1.084       .  S
C296        C301   1.505       .  S
C296        C297   1.421       .  A
C297        C298   1.416       .  A
C297        C302   1.517       .  S
C298        C299   1.405       .  A
C298        H303   1.080       .  S
C299        C300   1.418       .  A
C300        C304   1.515       .  S
C301        C306   1.414       .  A
C301        C310   1.407       .  A
C302        F318   1.382       .  S
C302        F319   1.382       .  S
C302        F320   1.384       .  S
C304        F315   1.384       .  S
C304        F316   1.383       .  S
C304        F317   1.383       .  S
C306        C307   1.410       .  A
C306        C311   1.520       .  S
C307        C308   1.413       .  A
C307        H312   1.080       .  S
C308        C309   1.427       .  A
C309        C310   1.421       .  A
C309        C313   1.518       .  S
C310        H314   1.083       .  S
C311        F324   1.384       .  S
C311        F325   1.382       .  S
C311        F326   1.383       .  S
C313        F321   1.384       .  S
C313        F322   1.383       .  S
C313        F323   1.384       .  S
C327        C328   1.409       .  A
C327        C332   1.417       .  A
C327        H337   1.083       .  S
C328        C333   1.493       .  S
C328        C329   1.414       .  A
C329        C330   1.404       .  A
C329        C334   1.520       .  S
C330        C331   1.410       .  A
C330        H335   1.085       .  S
C331        C332   1.422       .  A
C332        C336   1.518       .  S
C333        C338   1.418       .  A
C333        C342   1.402   1_545  A
C334        F350   1.383       .  S
C334        F351   1.381       .  S
C334        F352   1.384       .  S
C336        F347   1.385       .  S
C336        F348   1.383       .  S
C336        F349   1.383       .  S
C338        C339   1.414   1_545  A
C338        C343   1.517       .  S
C339        C340   1.405       .  A
C339        H344   1.082       .  S
C340        C341   1.418       .  A
C341        C342   1.406       .  A
C341        C345   1.515       .  S
C342        H346   1.085   1_565  S
C343        F356   1.384       .  S
C343        F357   1.382       .  S
C343        F358   1.383       .  S
C345        F353   1.382       .  S
C345        F354   1.384       .  S
C345        F355   1.384       .  S
C359        C360   1.401       .  A
C359        C364   1.404       .  A
C359        H369   1.083       .  S
C360        C365   1.485       .  S
C360        C361   1.418       .  A
C361        C362   1.408       .  A
C361        C366   1.520       .  S
C362        C363   1.402       .  A
C362        H367   1.083       .  S
C363        C364   1.415       .  A
C364        C368   1.516       .  S
C365        C370   1.413       .  A
C365        C374   1.401       .  A
C366        F382   1.382       .  S
C366        F383   1.383       .  S
C366        F384   1.385       .  S
C368        F379   1.384       .  S
C368        F380   1.380       .  S
C368        F381   1.382       .  S
C370        C371   1.405       .  A
C370        C375   1.521       .  S
C371        C372   1.410       .  A
C371        H376   1.082       .  S
C372        C373   1.424       .  A
C373        C374   1.409       .  A
C373        C377   1.520       .  S
C374        H378   1.083       .  S
C375        F388   1.384       .  S
C375        F389   1.382       .  S
C375        F390   1.383       .  S
C377        F385   1.381       .  S
C377        F386   1.383       .  S
C377        F387   1.385       .  S
C391        C392   1.406   1_554  A
C391        C396   1.414       .  A
C391        H401   1.083       .  S
C392        C397   1.499       .  S
C392        C393   1.416       .  A
C393        C394   1.413       .  A
C393        C398   1.522       .  S
C394        C395   1.411   1_556  A
C394        H399   1.080       .  S
C395        C396   1.416       .  A
C396        C400   1.515       .  S
C397        C402   1.418       .  A
C397        C406   1.404       .  A
C398        F414   1.382       .  S
C398        F415   1.382       .  S
C398        F416   1.385       .  S
C400        F411   1.384       .  S
C400        F412   1.382       .  S
C400        F413   1.383       .  S
C402        C403   1.414       .  A
C402        C407   1.520   1_556  S
C403        C404   1.406       .  A
C403        H408   1.081       .  S
C404        C405   1.422       .  A
C405        C406   1.413       .  A
C405        C409   1.517       .  S
C406        H410   1.084       .  S
C407        F420   1.384       .  S
C407        F421   1.383       .  S
C407        F422   1.381       .  S
C409        F417   1.383       .  S
C409        F418   1.383       .  S
C409        F419   1.383       .  S
C423        C424   1.400       .  A
C423        C428   1.407       .  A
C423        H433   1.085       .  S
C424        C429   1.504       .  S
C424        C425   1.421       .  A
C425        C426   1.422       .  A
C425        C430   1.518       .  S
C426        C427   1.409       .  A
C426        H431   1.083       .  S
C427        C428   1.417       .  A
C428        C432   1.511       .  S
C429        C434   1.423   1_554  A
C429        C438   1.399       .  A
C430        F446   1.382       .  S
C430        F447   1.381       .  S
C430        F448   1.385       .  S
C432        F443   1.379       .  S
C432        F444   1.383       .  S
C432        F445   1.383       .  S
C434        C435   1.420       .  A
C434        C439   1.519       .  S
C435        C436   1.407   1_556  A
C435        H440   1.082       .  S
C436        C437   1.431       .  A
C437        C438   1.413       .  A
C437        C441   1.519       .  S
C438        H442   1.083       .  S
C439        F452   1.385       .  S
C439        F453   1.382       .  S
C439        F454   1.379       .  S
C441        F449   1.383       .  S
C441        F450   1.378       .  S
C441        F451   1.385       .  S
C455        C456   1.400       .  A
C455        C460   1.401       .  A
C455        H465   1.084       .  S
C456        C461   1.476       .  S
C456        C457   1.417       .  A
C457        C458   1.407       .  A
C457        C462   1.520       .  S
C458        C459   1.402       .  A
C458        H463   1.084       .  S
C459        C460   1.413       .  A
C460        C464   1.518       .  S
C461        C466   1.416       .  A
C461        C470   1.397       .  A
C462        F478   1.383       .  S
C462        F479   1.381       .  S
C462        F480   1.385       .  S
C464        F475   1.382       .  S
C464        F476   1.384       .  S
C464        F477   1.384       .  S
C466        C467   1.408       .  A
C466        C471   1.519       .  S
C467        C468   1.402       .  A
C467        H472   1.083       .  S
C468        C469   1.420       .  A
C469        C470   1.402       .  A
C469        C473   1.520       .  S
C470        H474   1.083       .  S
C471        F484   1.384       .  S
C471        F485   1.382       .  S
C471        F486   1.381       .  S
C473        F481   1.385       .  S
C473        F482   1.383       .  S
C473        F483   1.382       .  S
C487        C488   1.401       .  A
C487        C492   1.405       .  A
C487        H497   1.082       .  S
C488        C493   1.493       .  S
C488        C489   1.422       .  A
C489        C490   1.411       .  A
C489        C494   1.518       .  S
C490        C491   1.399       .  A
C490        H495   1.083       .  S
C491        C492   1.415       .  A
C492        C496   1.513       .  S
C493        C498   1.417   1_565  A
C493        C502   1.408       .  A
C494        F510   1.381       .  S
C494        F511   1.383       .  S
C494        F512   1.385       .  S
C496        F507   1.382       .  S
C496        F508   1.384       .  S
C496        F509   1.376       .  S
C498        C499   1.406       .  A
C498        C503   1.524       .  S
C499        C500   1.404       .  A
C499        H504   1.074       .  S
C500        C501   1.413       .  A
C501        C502   1.413   1_545  A
C501        C505   1.514       .  S
C502        H506   1.082       .  S
C503        F516   1.384       .  S
C503        F517   1.381   1_545  S
C503        F518   1.383   1_545  S
C505        F513   1.384   1_545  S
C505        F514   1.383       .  S
C505        F515   1.382       .  S
C519        C520   1.391       .  A
C519        C524   1.392       .  A
C519        H529   1.084       .  S
C520        C525   1.477       .  S
C520        C521   1.417       .  A
C521        C522   1.415       .  A
C521        C526   1.515       .  S
C522        C523   1.404       .  A
C522        H527   1.083       .  S
C523        C524   1.428       .  A
C524        C528   1.528       .  S
C525        C530   1.414       .  A
C525        C534   1.396       .  A
C526        F542   1.382       .  S
C526        F543   1.381       .  S
C526        F544   1.385       .  S
C528        F539   1.379       .  S
C528        F540   1.385       .  S
C528        F541   1.378       .  S
C530        C531   1.407       .  A
C530        C535   1.520       .  S
C531        C532   1.411       .  A
C531        H536   1.082       .  S
C532        C533   1.432       .  A
C533        C534   1.404       .  A
C533        C537   1.524       .  S
C534        H538   1.084       .  S
C535        F548   1.384       .  S
C535        F549   1.382       .  S
C535        F550   1.381       .  S
C537        F545   1.384       .  S
C537        F546   1.382       .  S
C537        F547   1.386       .  S
C551        C552   1.398       .  A
C551        C556   1.403       .  A
C551        H561   1.083       .  S
C552        C557   1.489       .  S
C552        C553   1.417       .  A
C553        C554   1.414       .  A
C553        C558   1.517       .  S
C554        C555   1.407       .  A
C554        H559   1.083       .  S
C555        C556   1.418       .  A
C556        C560   1.512       .  S
C557        C562   1.414       .  A
C557        C566   1.404       .  A
C558        F574   1.382       .  S
C558        F575   1.382       .  S
C558        F576   1.385       .  S
C560        F571   1.385       .  S
C560        F572   1.381       .  S
C560        F573   1.383       .  S
C562        C563   1.406       .  A
C562        C567   1.521       .  S
C563        C564   1.409       .  A
C563        H568   1.083       .  S
C564        C565   1.425       .  A
C565        C566   1.414       .  A
C565        C569   1.520       .  S
C566        H570   1.083       .  S
C567        F580   1.384       .  S
C567        F581   1.382       .  S
C567        F582   1.382       .  S
C569        F577   1.384       .  S
C569        F578   1.383       .  S
C569        F579   1.383       .  S
C583        C584   1.407       .  A
C583        C588   1.414       .  A
C583        H593   1.086       .  S
C584        C589   1.492       .  S
C584        C585   1.415       .  A
C585        C586   1.408       .  A
C585        C590   1.520       .  S
C586        C587   1.406       .  A
C586        H591   1.088       .  S
C587        C588   1.417       .  A
C588        C592   1.516       .  S
C589        C594   1.418       .  A
C589        C598   1.403       .  A
C590        F606   1.382       .  S
C590        F607   1.382       .  S
C590        F608   1.383       .  S
C592        F603   1.384       .  S
C592        F604   1.383       .  S
C592        F605   1.384       .  S
C594        C595   1.411       .  A
C594        C599   1.519       .  S
C595        C596   1.403       .  A
C595        H600   1.082       .  S
C596        C597   1.418       .  A
C597        C598   1.408       .  A
C597        C601   1.518       .  S
C598        H602   1.084       .  S
C599        F612   1.385       .  S
C599        F613   1.382       .  S
C599        F614   1.381       .  S
C601        F609   1.383       .  S
C601        F610   1.384       .  S
C601        F611   1.383       .  S
C615        C616   1.408       .  A
C615        C620   1.418       .  A
C615        H625   1.083       .  S
C616        C621   1.502       .  S
C616        C617   1.415       .  A
C617        C618   1.410       .  A
C617        C622   1.518       .  S
C618        C619   1.408       .  A
C618        H623   1.083       .  S
C619        C620   1.421       .  A
C620        C624   1.518       .  S
C621        C626   1.418       .  A
C621        C630   1.406   1_655  A
C622        F638   1.382       .  S
C622        F639   1.381       .  S
C622        F640   1.385       .  S
C624        F635   1.385       .  S
C624        F636   1.383       .  S
C624        F637   1.383       .  S
C626        C627   1.412   1_655  A
C626        C631   1.520       .  S
C627        C628   1.406       .  A
C627        H632   1.080       .  S
C628        C629   1.420       .  A
C629        C630   1.414       .  A
C629        C633   1.515       .  S
C630        H634   1.085   1_455  S
C631        F644   1.384       .  S
C631        F645   1.382       .  S
C631        F646   1.382       .  S
C633        F641   1.383       .  S
C633        F642   1.381       .  S
C633        F643   1.383       .  S
C647        C648   1.401       .  A
C647        C652   1.407       .  A
C647        H657   1.085       .  S
C648        C653   1.496       .  S
C648        C649   1.420       .  A
C649        C650   1.414       .  A
C649        C654   1.519       .  S
C650        C651   1.404       .  A
C650        H655   1.080       .  S
C651        C652   1.423       .  A
C652        C656   1.519       .  S
C653        C658   1.417       .  A
C653        C662   1.407       .  A
C654        F670   1.382       .  S
C654        F671   1.381       .  S
C654        F672   1.384       .  S
C656        F667   1.383       .  S
C656        F668   1.384       .  S
C656        F669   1.383       .  S
C658        C659   1.411       .  A
C658        C663   1.519       .  S
C659        C660   1.406       .  A
C659        H664   1.082       .  S
C660        C661   1.413       .  A
C661        C662   1.412       .  A
C661        C665   1.515       .  S
C662        H666   1.083       .  S
C663        F676   1.385       .  S
C663        F677   1.382       .  S
C663        F678   1.381       .  S
C665        F673   1.382       .  S
C665        F674   1.383       .  S
C665        F675   1.385       .  S
C679        C680   1.399       .  A
C679        C684   1.408       .  A
C679        H689   1.086       .  S
C680        C685   1.503       .  S
C680        C681   1.420       .  A
C681        C682   1.420       .  A
C681        C686   1.517       .  S
C682        C683   1.408       .  A
C682        H687   1.084       .  S
C683        C684   1.423       .  A
C684        C688   1.514       .  S
C685        C690   1.419       .  A
C685        C694   1.400       .  A
C686        F702   1.383       .  S
C686        F703   1.382       .  S
C686        F704   1.384       .  S
C688        F699   1.383       .  S
C688        F700   1.384       .  S
C688        F701   1.381       .  S
C690        C691   1.415       .  A
C690        C695   1.518       .  S
C691        C692   1.407       .  A
C691        H696   1.083       .  S
C692        C693   1.431       .  A
C693        C694   1.414       .  A
C693        C697   1.523       .  S
C694        H698   1.083       .  S
C695        F708   1.385       .  S
C695        F709   1.382       .  S
C695        F710   1.382       .  S
C697        F705   1.382       .  S
C697        F706   1.383       .  S
C697        F707   1.385       .  S
C711        C712   1.405   1_545  A
C711        C716   1.415   1_545  A
C711        H721   1.083       .  S
C712        C717   1.493       .  S
C712        C713   1.414       .  A
C713        C714   1.406       .  A
C713        C718   1.520       .  S
C714        C715   1.410       .  A
C714        H719   1.082       .  S
C715        C716   1.424       .  A
C716        C720   1.519   1_565  S
C717        C722   1.418   1_565  A
C717        C726   1.397       .  A
C718        F734   1.382       .  S
C718        F735   1.382       .  S
C718        F736   1.384       .  S
C720        F731   1.383       .  S
C720        F732   1.385       .  S
C720        F733   1.380   1_545  S
C722        C723   1.417       .  A
C722        C727   1.518       .  S
C723        C724   1.409   1_545  A
C723        H728   1.083       .  S
C724        C725   1.420       .  A
C725        C726   1.404       .  A
C725        C729   1.511       .  S
C726        H730   1.084       .  S
C727        F740   1.385       .  S
C727        F741   1.382       .  S
C727        F742   1.382       .  S
C729        F737   1.385       .  S
C729        F738   1.378       .  S
C729        F739   1.381       .  S
C743        C744   1.406   1_556  A
C743        C748   1.417       .  A
C743        H753   1.083       .  S
C744        C749   1.492       .  S
C744        C745   1.410       .  A
C745        C746   1.404       .  A
C745        C750   1.521       .  S
C746        C747   1.413   1_554  A
C746        H751   1.080       .  S
C747        C748   1.424       .  A
C748        C752   1.518       .  S
C749        C754   1.418       .  A
C749        C758   1.401       .  A
C750        F766   1.382       .  S
C750        F767   1.382       .  S
C750        F768   1.384       .  S
C752        F763   1.385       .  S
C752        F764   1.383       .  S
C752        F765   1.384       .  S
C754        C755   1.412       .  A
C754        C759   1.518   1_554  S
C755        C756   1.405       .  A
C755        H760   1.081   1_554  S
C756        C757   1.416       .  A
C757        C758   1.405       .  A
C757        C761   1.512       .  S
C758        H762   1.085       .  S
C759        F772   1.385       .  S
C759        F773   1.382       .  S
C759        F774   1.383       .  S
C761        F769   1.383       .  S
C761        F770   1.382       .  S
C761        F771   1.383       .  S
C775        C776   1.405       .  A
C775        C780   1.416       .  A
C775        H785   1.082       .  S
C776        C781   1.493       .  S
C776        C777   1.412       .  A
C777        C778   1.407       .  A
C777        C782   1.521       .  S
C778        C779   1.410       .  A
C778        H783   1.076       .  S
C779        C780   1.419       .  A
C780        C784   1.509       .  S
C781        C786   1.416   1_556  A
C781        C790   1.398       .  A
C782        F798   1.383       .  S
C782        F799   1.382       .  S
C782        F800   1.385       .  S
C784        F795   1.381   1_546  S
C784        F796   1.385       .  S
C784        F797   1.382   1_545  S
C786        C787   1.411       .  A
C786        C791   1.519       .  S
C787        C788   1.407   1_554  A
C787        H792   1.081       .  S
C788        C789   1.431       .  A
C789        C790   1.411       .  A
C789        C793   1.519       .  S
C790        H794   1.083       .  S
C791        F804   1.385       .  S
C791        F805   1.383       .  S
C791        F806   1.381       .  S
C793        F801   1.382       .  S
C793        F802   1.383       .  S
C793        F803   1.385       .  S
C807        C808   1.400       .  A
C807        C812   1.405       .  A
C807        H817   1.085       .  S
C808        C813   1.489       .  S
C808        C809   1.414       .  A
C809        C810   1.413       .  A
C809        C814   1.518       .  S
C810        C811   1.408       .  A
C810        H815   1.083       .  S
C811        C812   1.417       .  A
C812        C816   1.513       .  S
C813        C818   1.420   1_556  A
C813        C822   1.397       .  A
C814        F830   1.383       .  S
C814        F831   1.382   1_556  S
C814        F832   1.384       .  S
C816        F827   1.381       .  S
C816        F828   1.383       .  S
C816        F829   1.382       .  S
C818        C819   1.412       .  A
C818        C823   1.520       .  S
C819        C820   1.403   1_554  A
C819        H824   1.083       .  S
C820        C821   1.426       .  A
C821        C822   1.407       .  A
C821        C825   1.522       .  S
C822        H826   1.084       .  S
C823        F836   1.385       .  S
C823        F837   1.383       .  S
C823        F838   1.381       .  S
C825        F833   1.382       .  S
C825        F834   1.380       .  S
C825        F835   1.385       .  S
C839        C840   1.404       .  A
C839        C844   1.410   1_554  A
C839        H849   1.083   1_554  S
C840        C845   1.489       .  S
C840        C841   1.412       .  A
C841        C842   1.407       .  A
C841        C846   1.519       .  S
C842        C843   1.411       .  A
C842        H847   1.083       .  S
C843        C844   1.420   1_554  A
C844        C848   1.518       .  S
C845        C850   1.415   1_554  A
C845        C854   1.405       .  A
C846        F862   1.383       .  S
C846        F863   1.383       .  S
C846        F864   1.385       .  S
C848        F859   1.383       .  S
C848        F860   1.384       .  S
C848        F861   1.379       .  S
C850        C851   1.403   1_556  A
C850        C855   1.522       .  S
C851        C852   1.404       .  A
C851        H856   1.081   1_554  S
C852        C853   1.415       .  A
C853        C854   1.414       .  A
C853        C857   1.507       .  S
C854        H858   1.083       .  S
C855        F868   1.383       .  S
C855        F869   1.382       .  S
C855        F870   1.383       .  S
C857        F865   1.382       .  S
C857        F866   1.383       .  S
C857        F867   1.385       .  S
C871        C872   1.403   1_565  A
C871        C876   1.413       .  A
C871        H881   1.083       .  S
C872        C877   1.494       .  S
C872        C873   1.415       .  A
C873        C874   1.409       .  A
C873        C878   1.520       .  S
C874        C875   1.409       .  A
C874        H879   1.082       .  S
C875        C876   1.424   1_545  A
C876        C880   1.519       .  S
C877        C882   1.415       .  A
C877        C886   1.398       .  A
C878        F894   1.382       .  S
C878        F895   1.382       .  S
C878        F896   1.385       .  S
C880        F891   1.384       .  S
C880        F892   1.383       .  S
C880        F893   1.384       .  S
C882        C883   1.412   1_545  A
C882        C887   1.519   1_545  S
C883        C884   1.411       .  A
C883        H888   1.082       .  S
C884        C885   1.434   1_565  A
C885        C886   1.411       .  A
C885        C889   1.523       .  S
C886        H890   1.083       .  S
C887        F900   1.384       .  S
C887        F901   1.383       .  S
C887        F902   1.382   1_565  S
C889        F897   1.385       .  S
C889        F898   1.384   1_545  S
C889        F899   1.383       .  S
C903        C904   1.408       .  A
C903        C908   1.416       .  A
C903        H913   1.083       .  S
C904        C909   1.494       .  S
C904        C905   1.416       .  A
C905        C906   1.404       .  A
C905        C910   1.520       .  S
C906        C907   1.404       .  A
C906        H911   1.083       .  S
C907        C908   1.416       .  A
C908        C912   1.516       .  S
C909        C914   1.411       .  A
C909        C918   1.407       .  A
C910        F926   1.382       .  S
C910        F927   1.381       .  S
C910        F928   1.385       .  S
C912        F923   1.382       .  S
C912        F924   1.385       .  S
C912        F925   1.379       .  S
C914        C915   1.407       .  A
C914        C919   1.521       .  S
C915        C916   1.414       .  A
C915        H920   1.083       .  S
C916        C917   1.420       .  A
C917        C918   1.417       .  A
C917        C921   1.516       .  S
C918        H922   1.083       .  S
C919        F932   1.385       .  S
C919        F933   1.382       .  S
C919        F934   1.382       .  S
C921        F929   1.384       .  S
C921        F930   1.383       .  S
C921        F931   1.384       .  S
C935        C936   1.397       .  A
C935        C940   1.403       .  A
C935        H945   1.085       .  S
C936        C941   1.486       .  S
C936        C937   1.420       .  A
C937        C938   1.407       .  A
C937        C942   1.519       .  S
C938        C939   1.399       .  A
C938        H943   1.083       .  S
C939        C940   1.423       .  A
C940        C944   1.516   1_455  S
C941        C946   1.412       .  A
C941        C950   1.400       .  A
C942        F958   1.382       .  S
C942        F959   1.383       .  S
C942        F960   1.384       .  S
C944        F955   1.384       .  S
C944        F956   1.383   1_655  S
C944        F957   1.375       .  S
C946        C947   1.408       .  A
C946        C951   1.520       .  S
C947        C948   1.410       .  A
C947        H952   1.084       .  S
C948        C949   1.419       .  A
C949        C950   1.409       .  A
C949        C953   1.506       .  S
C950        H954   1.083       .  S
C951        F964   1.384       .  S
C951        F965   1.382       .  S
C951        F966   1.383       .  S
C953        F961   1.385       .  S
C953        F962   1.383       .  S
C953        F963   1.381       .  S
C967        C968   1.395       .  A
C967        C972   1.413       .  A
C967        H977   1.083       .  S
C968        C973   1.501       .  S
C968        C969   1.420       .  A
C969        C970   1.416       .  A
C969        C974   1.518       .  S
C970        C971   1.408       .  A
C970        H975   1.082       .  S
C971        C972   1.441       .  A
C972        C976   1.527       .  S
C973        C978   1.419   1_455  A
C973        C982   1.398       .  A
C974        F990   1.382       .  S
C974        F991   1.382       .  S
C974        F992   1.384       .  S
C976        F987   1.381       .  S
C976        F988   1.385       .  S
C976        F989   1.383       .  S
C978        C979   1.419       .  A
C978        C983   1.516   1_655  S
C979        C980   1.406       .  A
C979        H984   1.082       .  S
C980        C981   1.424       .  A
C981        C982   1.407   1_655  A
C981        C985   1.516       .  S
C982        H986   1.083       .  S
C983        F996   1.384   1_455  S
C983        F997   1.383       .  S
C983        F998   1.382       .  S
C985        F993   1.385       .  S
C985        F994   1.380       .  S
C985        F995   1.381       .  S
C999       C1000   1.406       .  A
C999       C1004   1.417       .  A
C999       H1009   1.083       .  S
C1000      C1005   1.499       .  S
C1000      C1001   1.410       .  A
C1001      C1002   1.411       .  A
C1001      C1006   1.520       .  S
C1002      C1003   1.418       .  A
C1002      H1007   1.082       .  S
C1003      C1004   1.425       .  A
C1004      C1008   1.517       .  S
C1005      C1010   1.416       .  A
C1005      C1014   1.407       .  A
C1006      F1022   1.383       .  S
C1006      F1023   1.382       .  S
C1006      F1024   1.383       .  S
C1008      F1019   1.384       .  S
C1008      F1020   1.382       .  S
C1008      F1021   1.383       .  S
C1010      C1011   1.407       .  A
C1010      C1015   1.521       .  S
C1011      C1012   1.402       .  A
C1011      H1016   1.075       .  S
C1012      C1013   1.420       .  A
C1013      C1014   1.417       .  A
C1013      C1017   1.516       .  S
C1014      H1018   1.083       .  S
C1015      F1028   1.384       .  S
C1015      F1029   1.382       .  S
C1015      F1030   1.382       .  S
C1017      F1025   1.384       .  S
C1017      F1026   1.382       .  S
C1017      F1027   1.383       .  S
C1031      C1032   1.403       .  A
C1031      C1036   1.414       .  A
C1031      H1041   1.083       .  S
C1032      C1037   1.490       .  S
C1032      C1033   1.413   1_545  A
C1033      C1034   1.407       .  A
C1033      C1038   1.521       .  S
C1034      C1035   1.410       .  A
C1034      H1039   1.082       .  S
C1035      C1036   1.424   1_565  A
C1036      C1040   1.519       .  S
C1037      C1042   1.416       .  A
C1037      C1046   1.401       .  A
C1038      F1054   1.382       .  S
C1038      F1055   1.382       .  S
C1038      F1056   1.384       .  S
C1040      F1051   1.385       .  S
C1040      F1052   1.382       .  S
C1040      F1053   1.383       .  S
C1042      C1043   1.410       .  A
C1042      C1047   1.519       .  S
C1043      C1044   1.406       .  A
C1043      H1048   1.082       .  S
C1044      C1045   1.426       .  A
C1045      C1046   1.409       .  A
C1045      C1049   1.524       .  S
C1046      H1050   1.083       .  S
C1047      F1060   1.385       .  S
C1047      F1061   1.382       .  S
C1047      F1062   1.382   1_545  S
C1049      F1057   1.383       .  S
C1049      F1058   1.383       .  S
C1049      F1059   1.385       .  S
