geometry optimzed in LAMMPS
_audit_creation_date              2020-12-01 
_audit_creation_method            'lammps2cif' 
_symmetry_space_group_name_H-M    'P1' 
_symmetry_Int_Tables_number       1 
_symmetry_cell_setting            triclinic 
loop_ 
_symmetry_equiv_pos_as_xyz 
  x,y,z 
_cell_length_a                    49.19349078 
_cell_length_b                    49.056926872383336 
_cell_length_c                    29.881103891246365 
_cell_angle_alpha                 90.51980043715238 
_cell_angle_beta                  89.58026216215418 
_cell_angle_gamma                 89.266497799252 
loop_ 
_atom_site_label 
_atom_site_type_symbol 
_atom_site_fract_x 
_atom_site_fract_y 
_atom_site_fract_z 
_atom_site_charge 
O1          O  0.02603803  0.43625712  0.03804436    -0.73500
O2          O  0.47061484  0.37858640  0.03195760    -0.74500
O3          O  0.02986772  0.38013503  0.03574184    -0.63100
O4          O  0.46951766  0.43566113  0.03468891    -0.71500
O5          O  0.47168906  0.43750001  0.46039634    -0.71100
O6          O  0.02790826  0.37810744  0.46171961    -0.62300
O7          O  0.46838011  0.38112101  0.45799847    -0.74800
O8          O  0.02826076  0.43499660  0.46360954    -0.73600
Cu9        Cu  0.49884214  0.40733103  0.03773207     1.04600
Cu10       Cu  0.99917444  0.40766827  0.45825740     1.04300
C11         C  0.03589783  0.44457708  0.00124771     0.92700
C12         C  0.45907571  0.37239449  0.49501728     0.91800
C13         C  0.03953021  0.37157022  0.99842098     0.84000
C14         C  0.46195025  0.44599389  0.49767564     0.90200
O15         O  0.43376581  0.47771385  0.03549919    -0.73500
O16         O  0.37527176  0.03452868  0.03534547    -0.74500
O17         O  0.37798934  0.47494319  0.03531848    -0.63100
O18         O  0.43219014  0.03509544  0.03590183    -0.71500
O19         O  0.43404994  0.03429320  0.46150779    -0.71100
O20         O  0.37624310  0.47841490  0.46144908    -0.62300
O21         O  0.37772997  0.03808806  0.46148623    -0.74800
O22         O  0.43276548  0.47694583  0.46109082    -0.73600
Cu23       Cu  0.40454417  0.00570106  0.03814997     1.04600
Cu24       Cu  0.40496510  0.00691643  0.45874093     1.04300
C25         C  0.44191990  0.46791643  0.99806270     0.92700
C26         C  0.36884145  0.04684930  0.49924185     0.91800
C27         C  0.37003110  0.46596711  0.99752983     0.84000
C28         C  0.44204768  0.04361492  0.49901588     0.90200
O29         O  0.02838079  0.13051499  0.03798852    -0.73500
O30         O  0.47157321  0.07290926  0.03717989    -0.74500
O31         O  0.02842810  0.07318220  0.03891002    -0.63100
O32         O  0.46851645  0.12916762  0.03586723    -0.71500
O33         O  0.47342837  0.12984016  0.46199434    -0.71100
O34         O  0.02867249  0.07089359  0.46448664    -0.62300
O35         O  0.47213802  0.07330840  0.46274564    -0.74800
O36         O  0.03288624  0.12696688  0.46430375    -0.73600
Cu37       Cu  0.99928974  0.10179671  0.04019513     1.04600
Cu38       Cu  0.50182664  0.10055723  0.46080897     1.04300
C39         C  0.04127218  0.13604039  0.50184606     0.92700
C40         C  0.46286008  0.06425412  0.99967217     0.91800
C41         C  0.03707987  0.06262687  0.50218689     0.84000
C42         C  0.46009703  0.13647189  0.99744431     0.90200
O43         O  0.12191523  0.47351241  0.03880465    -0.73500
O44         O  0.06448651  0.03119765  0.04026467    -0.74500
O45         O  0.06543896  0.47396937  0.03920815    -0.63100
O46         O  0.12017091  0.03367738  0.03970653    -0.71500
O47         O  0.12222036  0.02956001  0.46572935    -0.71100
O48         O  0.06456610  0.47461756  0.46474560    -0.62300
O49         O  0.06629908  0.03141918  0.46581113    -0.74800
O50         O  0.11998972  0.46976291  0.46497182    -0.73600
Cu51       Cu  0.09329522  0.00298895  0.04222466     1.04600
Cu52       Cu  0.09357791  0.00137307  0.46273784     1.04300
C53         C  0.12792876  0.46060781  0.50250658     0.92700
C54         C  0.05685497  0.04071996  0.00287087     0.91800
C55         C  0.05621796  0.46537522  0.50190409     0.84000
C56         C  0.12785917  0.04256954  0.00172171     0.90200
C57         C  0.09616684  0.32202322  0.46110321     0.85900
C58         C  0.06840709  0.33651029  0.46220781    -0.54300
C59         C  0.06461117  0.35440149  0.99660643     0.08900
C60         C  0.09027469  0.35742335  0.02653513     0.19800
C61         C  0.11588940  0.34630585  0.45836995    -0.55000
C62         C  0.11333861  0.36473410  0.99252746     0.09000
C63         C  0.09992060  0.30985450  0.00776784    -0.54600
C64         C  0.09719967  0.32799098  0.04248002     0.09500
H65         H  0.05340626  0.33432093  0.43602624     0.14000
H66         H  0.08790653  0.37251190  0.05425519    -0.00200
H67         H  0.13125476  0.34846299  0.43244218     0.14300
H68         H  0.10444417  0.28836857  0.01287565     0.14100
C69         C  0.17387754  0.40272567  0.04269113     0.85900
C70         C  0.15864894  0.42987915  0.04234268    -0.54300
C71         C  0.14363011  0.43463006  0.50537193     0.08900
C72         C  0.14357193  0.40996599  0.47187792     0.19800
C73         C  0.15196810  0.38111692  0.03620444    -0.55000
C74         C  0.13511790  0.38518195  0.50120333     0.09000
C75         C  0.18975542  0.40137944  0.49801718    -0.54600
C76         C  0.17428848  0.40462787  0.46028666     0.09500
H77         H  0.16006242  0.44458665  0.06965573     0.14000
H78         H  0.13039529  0.41288922  0.44227716    -0.00200
H79         H  0.15119434  0.36230404  0.05430918     0.14300
H80         H  0.21157750  0.39782231  0.49649399     0.14100
C81         C  0.23816498  0.39982326  0.20650872     0.01700
C82         C  0.26691985  0.40152446  0.20897267     0.01700
C83         C  0.27859925  0.40246985  0.25150246    -0.18800
C84         C  0.26280963  0.40134368  0.29112903     0.01700
C85         C  0.23402901  0.39982370  0.28876319     0.01700
C86         C  0.22232483  0.39919739  0.24616697    -0.18800
H87         H  0.20038413  0.39826159  0.24376204     0.03700
H88         H  0.30050256  0.40400179  0.25388168     0.03700
C89         C  0.32551472  0.40817013  0.45578879     0.85900
C90         C  0.33932650  0.43572412  0.45722400    -0.54300
C91         C  0.35441623  0.44045948  0.99414496     0.08900
C92         C  0.35554460  0.41584507  0.02665432     0.19800
C93         C  0.34835298  0.38698832  0.46136321    -0.55000
C94         C  0.36494674  0.39130603  0.99652481     0.09000
C95         C  0.30975069  0.40613086  0.00041950    -0.54600
C96         C  0.32521387  0.40995759  0.03797568     0.09500
H97         H  0.33726066  0.45048321  0.43048908     0.14000
H98         H  0.36853022  0.41897652  0.05644960    -0.00200
H99         H  0.34968820  0.36809674  0.44260478     0.14300
H100        H  0.28825777  0.40142429  0.00218710     0.14100
C101        C  0.40261330  0.32875239  0.04015513     0.85900
C102        C  0.43160110  0.33819748  0.03119132    -0.54300
C103        C  0.43429031  0.35571621  0.49702994     0.08900
C104        C  0.40761416  0.35983829  0.47027224     0.19800
C105        C  0.38461631  0.35449464  0.04209970    -0.55000
C106        C  0.38664763  0.37069568  0.50579755     0.09000
C107        C  0.39593974  0.31421744  0.49565826    -0.54600
C108        C  0.39843507  0.33026104  0.45855219     0.09500
H109        H  0.44913579  0.33161553  0.05027708     0.14000
H110        H  0.40975669  0.37328329  0.44078889    -0.00200
H111        H  0.36975892  0.35835369  0.06859133     0.14300
H112        H  0.39160081  0.29261848  0.49318754     0.14100
C113        C  0.17526936  0.09815002  0.46200182     0.85900
C114        C  0.15871831  0.07221953  0.46129453    -0.54300
C115        C  0.14290659  0.06832938  0.99778737     0.08900
C116        C  0.14270917  0.09284837  0.03108130     0.19800
C117        C  0.15465286  0.12147613  0.46807077    -0.55000
C118        C  0.13628990  0.11855570  0.00127918     0.09000
C119        C  0.19010863  0.09790326  0.00755212    -0.54600
C120        C  0.17336103  0.09501036  0.04452583     0.09500
H121        H  0.16029882  0.05733340  0.43416804     0.14000
H122        H  0.12845422  0.09007469  0.05950238    -0.00200
H123        H  0.15581386  0.14050629  0.45046875     0.14300
H124        H  0.21203481  0.09948102  0.01023385     0.14100
C125        C  0.09817512  0.18475953  0.03730516     0.85900
C126        C  0.07041896  0.17058691  0.03808247    -0.54300
C127        C  0.06653430  0.15232387  0.50422554     0.08900
C128        C  0.09198429  0.14848812  0.47349067     0.19800
C129        C  0.11829693  0.16047923  0.03905368    -0.55000
C130        C  0.11514503  0.14091284  0.50727321     0.09000
C131        C  0.10120932  0.19633674  0.49027939    -0.54600
C132        C  0.09826855  0.17786905  0.45634210     0.09500
H133        H  0.05525734  0.17407606  0.06416302     0.14000
H134        H  0.08948540  0.13321752  0.44623194    -0.00200
H135        H  0.13485374  0.15930211  0.06221886     0.14300
H136        H  0.10525994  0.21773063  0.48428226     0.14100
C137        C  0.10311528  0.23508388  0.28630118     0.01700
C138        C  0.10492473  0.26372452  0.29316600     0.01700
C139        C  0.10615045  0.28154139  0.25651993    -0.18800
C140        C  0.10510401  0.27174683  0.21238318     0.01700
C141        C  0.10322490  0.24312171  0.20536164     0.01700
C142        C  0.10236614  0.22524396  0.24210994    -0.18800
H143        H  0.10117440  0.20346456  0.23615169     0.03700
H144        H  0.10733386  0.30331957  0.26252942     0.03700
C145        C  0.26573747  0.10521551  0.29340306     0.01700
C146        C  0.23770304  0.09950105  0.29542142     0.01700
C147        C  0.22261468  0.09588381  0.25584329    -0.18800
C148        C  0.23444332  0.09880665  0.21319792     0.01700
C149        C  0.26262908  0.10520440  0.21134184     0.01700
C150        C  0.27748692  0.10896538  0.25130228    -0.18800
H151        H  0.29884924  0.11407134  0.24951780     0.03700
H152        H  0.20121130  0.09109758  0.25847121     0.03700
C153        C  0.32426323  0.10495576  0.04513782     0.85900
C154        C  0.33515874  0.07572773  0.03850619    -0.54300
C155        C  0.35194411  0.07205516  0.50277049     0.08900
C156        C  0.35439798  0.09799354  0.47358287     0.19800
C157        C  0.34914897  0.12324699  0.04376296    -0.55000
C158        C  0.36486014  0.12027825  0.50671264     0.09000
C159        C  0.30883003  0.10966123  0.50110288    -0.54600
C160        C  0.32436946  0.10618361  0.46329087     0.09500
H161        H  0.33066473  0.05921439  0.06127913     0.14000
H162        H  0.36738082  0.09516803  0.44329521    -0.00200
H163        H  0.35344605  0.13807357  0.06975068     0.14300
H164        H  0.28701581  0.11284548  0.49933148     0.14100
C165        C  0.40159167  0.17989796  0.45257741     0.85900
C166        C  0.42924610  0.16555598  0.45440039    -0.54300
C167        C  0.43412304  0.15155460  0.99242110     0.08900
C168        C  0.40945438  0.15135649  0.02500095     0.19800
C169        C  0.38079840  0.15737810  0.45970199    -0.55000
C170        C  0.38528070  0.14141588  0.99563668     0.09000
C171        C  0.39910585  0.19675390  0.99631583    -0.54600
C172        C  0.40336588  0.18206129  0.03438209     0.09500
H173        H  0.44409366  0.16676805  0.42736879     0.14000
H174        H  0.41274214  0.13915595  0.05565404    -0.00200
H175        H  0.36166093  0.15629093  0.44252910     0.14300
H176        H  0.39447844  0.21846225  0.99710305     0.14100
C177        C  0.39845381  0.23936873  0.20662861     0.01700
C178        C  0.39567993  0.26806447  0.20513670     0.01700
C179        C  0.39364334  0.28378198  0.24478911    -0.18800
C180        C  0.39482365  0.27169067  0.28693110     0.01700
C181        C  0.39737143  0.24281354  0.28848928     0.01700
C182        C  0.39968943  0.22720498  0.24859937    -0.18800
H183        H  0.40223746  0.20525151  0.25033777     0.03700
H184        H  0.39174417  0.30578288  0.24267823     0.03700
C185        C  0.42549612  0.21672537  0.14338885    -0.02400
C186        C  0.40025552  0.22201265  0.16483951     0.07300
C187        C  0.37652547  0.21143614  0.14526904    -0.02500
C188        C  0.37737506  0.20013381  0.10170201    -0.02500
C189        C  0.40247827  0.19511928  0.07990231     0.07400
C190        C  0.42661047  0.20334178  0.10119520    -0.02700
Br191      Br  0.46112193  0.19809865  0.07117298    -0.01300
Br192      Br  0.45871606  0.22569947  0.17346670    -0.01300
Br193      Br  0.34383892  0.19415381  0.07053743    -0.01300
Br194      Br  0.34344718  0.20902151  0.17977093    -0.01300
C195        C  0.41931863  0.23082517  0.36089191    -0.02400
C196        C  0.39760491  0.22794577  0.33109561     0.07300
C197        C  0.37826103  0.20762148  0.33875850    -0.02500
C198        C  0.38221531  0.18924511  0.37355578    -0.02500
C199        C  0.39965571  0.19640650  0.40958297     0.07400
C200        C  0.41853605  0.21776078  0.40232471    -0.02700
Br201      Br  0.44599755  0.22765679  0.44561730    -0.01300
Br202      Br  0.45271135  0.24726934  0.34155603    -0.01300
Br203      Br  0.37248887  0.15202894  0.35876806    -0.01300
Br204      Br  0.34764466  0.20266378  0.29946663    -0.01300
C205        C  0.28624432  0.13089248  0.35915159    -0.02400
C206        C  0.28317503  0.10639854  0.33463838     0.07300
C207        C  0.29645257  0.08265550  0.35019854    -0.02500
C208        C  0.30906026  0.08239203  0.39240421    -0.02500
C209        C  0.31172808  0.10668995  0.41759916     0.07400
C210        C  0.30034204  0.13106125  0.40036697    -0.02700
Br211      Br  0.30342403  0.16476044  0.43355370    -0.01300
Br212      Br  0.27274725  0.16457733  0.33478863    -0.01300
Br213      Br  0.31909617  0.04768148  0.41731341    -0.01300
Br214      Br  0.29942347  0.05058310  0.31287979    -0.01300
C215        C  0.27226628  0.12702548  0.13682593    -0.02400
C216        C  0.27811223  0.10682601  0.16881764     0.07300
C217        C  0.30174242  0.09054881  0.16329676    -0.02500
C218        C  0.31889532  0.09470394  0.12707517    -0.02500
C219        C  0.30901879  0.10874513  0.08933583     0.07400
C220        C  0.28697483  0.12737382  0.09608844    -0.02700
Br221      Br  0.27959190  0.15661263  0.05489162    -0.01300
Br222      Br  0.24664794  0.15600969  0.15078281    -0.01300
Br223      Br  0.35697007  0.08441401  0.13335467    -0.01300
Br224      Br  0.31096157  0.06119036  0.20295149    -0.01300
C225        C  0.12521268  0.19769787  0.39189323    -0.02400
C226        C  0.10041664  0.18716503  0.40835077     0.07300
C227        C  0.07718012  0.18921093  0.38077905    -0.02500
C228        C  0.07839456  0.20288357  0.33914475    -0.02500
C229        C  0.10264160  0.21546759  0.32504290     0.07400
C230        C  0.12646299  0.21031836  0.34959303    -0.02700
Br231      Br  0.16118274  0.21758260  0.32255348    -0.01300
Br232      Br  0.15753282  0.19650476  0.42800815    -0.01300
Br233      Br  0.04709900  0.20322704  0.30058944    -0.01300
Br234      Br  0.04278082  0.17594932  0.40144328    -0.01300
C235        C  0.12636473  0.20916498  0.09729814    -0.02400
C236        C  0.10153628  0.20644622  0.07421876     0.07300
C237        C  0.07890825  0.22200910  0.08995218    -0.02500
C238        C  0.07903916  0.23318375  0.13343617    -0.02500
C239        C  0.10266453  0.23123551  0.15968069     0.07400
C240        C  0.12633204  0.21898266  0.14144999    -0.02700
Br241      Br  0.15811402  0.21296633  0.17771240    -0.01300
Br242      Br  0.16078034  0.20626542  0.06586077    -0.01300
Br243      Br  0.04567835  0.24762553  0.15874548    -0.01300
Br244      Br  0.04891629  0.23070452  0.05083834    -0.01300
C245        C  0.17702021  0.10969541  0.12731343    -0.02400
C246        C  0.18509297  0.09231933  0.09149178     0.07300
C247        C  0.20612551  0.07310443  0.10034572    -0.02500
C248        C  0.22134487  0.07436626  0.14051920    -0.02500
C249        C  0.21673276  0.09563169  0.17200022     0.07400
C250        C  0.19349890  0.11255821  0.16567696    -0.02700
Br251      Br  0.18404872  0.14084042  0.20830531    -0.01300
Br252      Br  0.14159558  0.12637010  0.12895131    -0.01300
Br253      Br  0.24626842  0.04512185  0.15458116    -0.01300
Br254      Br  0.21101156  0.04211435  0.06123130    -0.01300
C255        C  0.21188574  0.07796071  0.40893097    -0.02400
C256        C  0.19262891  0.09914115  0.41912756     0.07300
C257        C  0.18664678  0.11781602  0.38422526    -0.02500
C258        C  0.20535976  0.12102829  0.34962534    -0.02500
C259        C  0.22303764  0.09935659  0.33851667     0.07400
C260        C  0.22381683  0.07644272  0.36614740    -0.02700
Br261      Br  0.23505109  0.04152013  0.34208072    -0.01300
Br262      Br  0.21990465  0.04855648  0.44907597    -0.01300
Br263      Br  0.20367634  0.15379796  0.31504394    -0.01300
Br264      Br  0.14973166  0.12721111  0.36709742    -0.01300
C265        C  0.37183836  0.30576042  0.39771083    -0.02400
C266        C  0.39608133  0.31839432  0.41201846     0.07300
C267        C  0.41875257  0.31764143  0.38276410    -0.02500
C268        C  0.41698944  0.30539036  0.34006732    -0.02500
C269        C  0.39423086  0.28957623  0.32839472     0.07400
C270        C  0.37119027  0.29082554  0.35684202    -0.02700
Br271      Br  0.33813288  0.27355625  0.33831237    -0.01300
Br272      Br  0.33918216  0.30929505  0.43338192    -0.01300
Br273      Br  0.44619200  0.31105569  0.29812212    -0.01300
Br274      Br  0.45386267  0.32956758  0.40222106    -0.01300
C275        C  0.41862085  0.31683826  0.11847573    -0.02400
C276        C  0.39984080  0.31271098  0.08324657     0.07300
C277        C  0.37655086  0.29690777  0.09281752    -0.02500
C278        C  0.37413841  0.28449057  0.13477752    -0.02500
C279        C  0.39694906  0.28265425  0.16263938     0.07400
C280        C  0.41982494  0.29831420  0.15312307    -0.02700
Br281      Br  0.45242638  0.29636023  0.18806873    -0.01300
Br282      Br  0.43539403  0.35176798  0.13035903    -0.01300
Br283      Br  0.33873288  0.27524743  0.15725158    -0.01300
Br284      Br  0.34659175  0.29352637  0.05212678    -0.01300
C285        C  0.30071064  0.38218568  0.09660999    -0.02400
C286        C  0.31342490  0.40678418  0.08439736     0.07300
C287        C  0.31359864  0.42841948  0.11597418    -0.02500
C288        C  0.30059303  0.42581372  0.15815805    -0.02500
C289        C  0.28507204  0.40241797  0.16793683     0.07400
C290        C  0.28675021  0.38001457  0.13797192    -0.02700
Br291      Br  0.27201255  0.34543146  0.15529560    -0.01300
Br292      Br  0.30269280  0.35100223  0.05695342    -0.01300
Br293      Br  0.30394992  0.45482382  0.20203802    -0.01300
Br294      Br  0.32914549  0.46286261  0.10040454    -0.01300
C295        C  0.29900156  0.38376382  0.34181153    -0.02400
C296        C  0.27742277  0.40225107  0.33426079     0.07300
C297        C  0.27294005  0.42384994  0.36493281    -0.02500
C298        C  0.28612033  0.42369407  0.40646194    -0.02500
C299        C  0.30864131  0.40573577  0.41318622     0.07400
C300        C  0.31709184  0.38894447  0.37644207    -0.02700
Br301      Br  0.35502217  0.38352727  0.35998905    -0.01300
Br302      Br  0.30614315  0.35268598  0.30290143    -0.01300
Br303      Br  0.27494330  0.45085356  0.45058803    -0.01300
Br304      Br  0.25381402  0.45644073  0.34698303    -0.01300
C305        C  0.21741298  0.37759288  0.36047951    -0.02400
C306        C  0.21585564  0.39932152  0.32992804     0.07300
C307        C  0.19716899  0.42087047  0.33929261    -0.02500
C308        C  0.18343182  0.42254312  0.38116159    -0.02500
C309        C  0.18676662  0.40192587  0.41368559     0.07400
C310        C  0.20345437  0.37900629  0.40212007    -0.02700
Br311      Br  0.20740311  0.34887401  0.44274834    -0.01300
Br312      Br  0.23674750  0.34462032  0.34342219    -0.01300
Br313      Br  0.16241996  0.45486731  0.39455416    -0.01300
Br314      Br  0.19079864  0.44897795  0.29532156    -0.01300
C315        C  0.21206329  0.42046064  0.09226528    -0.02400
C316        C  0.19135716  0.40087410  0.08496090     0.07300
C317        C  0.18551161  0.38273770  0.12065458    -0.02500
C318        C  0.20455581  0.37893825  0.15455365    -0.02500
C319        C  0.22359454  0.39944865  0.16323514     0.07400
C320        C  0.22525732  0.42158028  0.13373457    -0.02700
Br321      Br  0.23999235  0.45581223  0.15350468    -0.01300
Br322      Br  0.22060968  0.44846835  0.04919779    -0.01300
Br323      Br  0.20192532  0.34696825  0.19168993    -0.01300
Br324      Br  0.14882293  0.37347409  0.13830848    -0.01300
C325        C  0.12795082  0.29336326  0.14543397    -0.02400
C326        C  0.10516368  0.29148277  0.17394340     0.07300
C327        C  0.08194501  0.30748268  0.16410205    -0.02500
C328        C  0.07964949  0.32058890  0.12218674    -0.02500
C329        C  0.10105161  0.31882512  0.09024406     0.06600
C330        C  0.12572777  0.30595058  0.10323176    -0.02700
Br331      Br  0.15689361  0.30517846  0.06366711    -0.01300
Br332      Br  0.16298103  0.28184905  0.16691606    -0.01300
Br333      Br  0.04604131  0.33873586  0.10806475    -0.01300
Br334      Br  0.05349541  0.31207052  0.20857292    -0.01300
C335        C  0.12515292  0.29531404  0.40393266    -0.02400
C336        C  0.09943680  0.30063707  0.42368213     0.07300
C337        C  0.07656974  0.28787047  0.40455491    -0.02500
C338        C  0.07811892  0.27770337  0.36070464    -0.02500
C339        C  0.10338524  0.27580556  0.33853111     0.07400
C340        C  0.12697648  0.28484757  0.36018026    -0.02700
Br341      Br  0.16118027  0.28669150  0.32851576    -0.01300
Br342      Br  0.15777610  0.29778542  0.43885549    -0.01300
Br343      Br  0.04490011  0.27113242  0.32888736    -0.01300
Br344      Br  0.04468234  0.27953977  0.43994545    -0.01300
O345        O  0.02603816  0.43625686  0.53804445    -0.73500
O346        O  0.47061520  0.37858631  0.53195809    -0.74500
O347        O  0.02986794  0.38013486  0.53574185    -0.63100
O348        O  0.46951774  0.43566105  0.53468988    -0.71500
O349        O  0.47168896  0.43749992  0.96039534    -0.71100
O350        O  0.02790808  0.37810766  0.96171958    -0.62300
O351        O  0.46837984  0.38112090  0.95799795    -0.74800
O352        O  0.02826075  0.43499674  0.96360946    -0.73600
Cu353      Cu  0.49884233  0.40733105  0.53773277     1.04600
Cu354      Cu  0.99917430  0.40766854  0.95825738     1.04300
C355        C  0.03589781  0.44457696  0.50124779     0.92700
C356        C  0.45907533  0.37239456  0.99501681     0.91800
C357        C  0.03953043  0.37157005  0.49842100     0.84000
C358        C  0.46195018  0.44599391  0.99767466     0.90200
O359        O  0.43376580  0.47771374  0.53550014    -0.73500
O360        O  0.37527151  0.03452857  0.53534601    -0.74500
O361        O  0.37798934  0.47494294  0.53531906    -0.63100
O362        O  0.43218989  0.03509548  0.53590280    -0.71500
O363        O  0.43404995  0.03429326  0.96150678    -0.71100
O364        O  0.37624302  0.47841516  0.96144849    -0.62300
O365        O  0.37772998  0.03808817  0.96148566    -0.74800
O366        O  0.43276536  0.47694593  0.96108988    -0.73600
Cu367      Cu  0.40454398  0.00570103  0.53815074     1.04600
Cu368      Cu  0.40496507  0.00691650  0.95874009     1.04300
C369        C  0.44191996  0.46791635  0.49806373     0.92700
C370        C  0.36884160  0.04684942  0.99924136     0.91800
C371        C  0.37003117  0.46596684  0.49753040     0.84000
C372        C  0.44204783  0.04361491  0.99901484     0.90200
O373        O  0.02838067  0.13051528  0.53798885    -0.73500
O374        O  0.47157303  0.07290941  0.53718090    -0.74500
O375        O  0.02842792  0.07318240  0.53891022    -0.63100
O376        O  0.46851621  0.12916775  0.53586755    -0.71500
O377        O  0.47342860  0.12984020  0.96199401    -0.71100
O378        O  0.02867268  0.07089330  0.96448646    -0.62300
O379        O  0.47213825  0.07330836  0.96274463    -0.74800
O380        O  0.03288627  0.12696666  0.96430340    -0.73600
Cu381      Cu  0.99928959  0.10179692  0.54019550     1.04600
Cu382      Cu  0.50182689  0.10055723  0.96080827     1.04300
C383        C  0.04127222  0.13604017  0.00184573     0.92700
C384        C  0.46285988  0.06425419  0.49967322     0.91800
C385        C  0.03708006  0.06262663  0.00218673     0.84000
C386        C  0.46009678  0.13647189  0.49744457     0.90200
O387        O  0.12191480  0.47351263  0.53880481    -0.73500
O388        O  0.06448623  0.03119779  0.54026472    -0.74500
O389        O  0.06543856  0.47396962  0.53920821    -0.63100
O390        O  0.12017065  0.03367744  0.53970657    -0.71500
O391        O  0.12222069  0.02955995  0.96572930    -0.71100
O392        O  0.06456639  0.47461743  0.96474554    -0.62300
O393        O  0.06629933  0.03141900  0.96581107    -0.74800
O394        O  0.11999003  0.46976278  0.96497165    -0.73600
Cu395      Cu  0.09329490  0.00298909  0.54222471     1.04600
Cu396      Cu  0.09357820  0.00137294  0.96273773     1.04300
C397        C  0.12792912  0.46060761  0.00250638     0.92700
C398        C  0.05685474  0.04072015  0.50287093     0.91800
C399        C  0.05621823  0.46537511  0.00190402     0.84000
C400        C  0.12785892  0.04256955  0.50172177     0.90200
C401        C  0.09616643  0.32202315  0.96110332     0.85900
C402        C  0.06840675  0.33651034  0.96220785    -0.54300
C403        C  0.06461144  0.35440141  0.49660642     0.08900
C404        C  0.09027496  0.35742335  0.52653507     0.19800
C405        C  0.11588913  0.34630570  0.95837010    -0.55000
C406        C  0.11333879  0.36473421  0.49252734     0.09000
C407        C  0.09992106  0.30985454  0.50776772    -0.54600
C408        C  0.09720005  0.32799100  0.54247991     0.09500
H409        H  0.05340594  0.33432105  0.93602628     0.14000
H410        H  0.08790680  0.37251188  0.55425514    -0.00200
H411        H  0.13125456  0.34846270  0.93244242     0.14300
H412        H  0.10444466  0.28836865  0.51287549     0.14100
C413        C  0.17387736  0.40272611  0.54269137     0.85900
C414        C  0.15864847  0.42987941  0.54234309    -0.54300
C415        C  0.14363046  0.43462981  0.00537164     0.08900
C416        C  0.14357206  0.40996567  0.97187777     0.19800
C417        C  0.15196811  0.38111716  0.53620443    -0.55000
C418        C  0.13511786  0.38518174  0.00120340     0.09000
C419        C  0.18975557  0.40137871  0.99801685    -0.54600
C420        C  0.17428856  0.40462731  0.96028639     0.09500
H421        H  0.16006174  0.44458685  0.56965629     0.14000
H422        H  0.13039543  0.41288894  0.94227705    -0.00200
H423        H  0.15119449  0.36230426  0.55430887     0.14300
H424        H  0.21157749  0.39782134  0.99649358     0.14100
C425        C  0.23816510  0.39982319  0.70650841     0.01700
C426        C  0.26691997  0.40152416  0.70897255     0.01700
C427        C  0.27859924  0.40246951  0.75150243    -0.18800
C428        C  0.26280947  0.40134338  0.79112884     0.01700
C429        C  0.23402886  0.39982348  0.78876275     0.01700
C430        C  0.22232482  0.39919739  0.74616646    -0.18800
H431        H  0.20038411  0.39826177  0.74376128     0.03700
H432        H  0.30050255  0.40400143  0.75388185     0.03700
C433        C  0.32551432  0.40817057  0.95578870     0.85900
C434        C  0.33932629  0.43572444  0.95722366    -0.54300
C435        C  0.35441638  0.44045915  0.49414537     0.08900
C436        C  0.35554490  0.41584469  0.52665455     0.19800
C437        C  0.34835242  0.38698855  0.96136325    -0.55000
C438        C  0.36494720  0.39130573  0.49652487     0.09000
C439        C  0.30975110  0.40613017  0.50041959    -0.54600
C440        C  0.32521421  0.40995704  0.53797580     0.09500
H441        H  0.33726055  0.45048350  0.93048858     0.14000
H442        H  0.36853044  0.41897617  0.55644987    -0.00200
H443        H  0.34968751  0.36809704  0.94260503     0.14300
H444        H  0.28825823  0.40142339  0.50218716     0.14100
C445        C  0.40261375  0.32875209  0.54015524     0.85900
C446        C  0.43160153  0.33819729  0.53119171    -0.54300
C447        C  0.43428983  0.35571638  0.99702954     0.08900
C448        C  0.40761363  0.35983852  0.97027197     0.19800
C449        C  0.38461665  0.35449427  0.54209976    -0.55000
C450        C  0.38664720  0.37069599  0.00579741     0.09000
C451        C  0.39593911  0.31421775  0.99565820    -0.54600
C452        C  0.39843445  0.33026125  0.95855202     0.09500
H453        H  0.44913623  0.33161542  0.55027772     0.14000
H454        H  0.40975611  0.37328347  0.94078864    -0.00200
H455        H  0.36975921  0.35835324  0.56859126     0.14300
H456        H  0.39160005  0.29261871  0.99318760     0.14100
C457        C  0.17526945  0.09815029  0.96200214     0.85900
C458        C  0.15871853  0.07221970  0.96129468    -0.54300
C459        C  0.14290648  0.06832928  0.49778728     0.08900
C460        C  0.14270922  0.09284825  0.53108123     0.19800
C461        C  0.15465285  0.12147631  0.96807088    -0.55000
C462        C  0.13628995  0.11855556  0.50127910     0.09000
C463        C  0.19010866  0.09790295  0.50755174    -0.54600
C464        C  0.17336113  0.09501016  0.54452559     0.09500
H465        H  0.16029919  0.05733364  0.93416830     0.14000
H466        H  0.12845432  0.09007461  0.55950226    -0.00200
H467        H  0.15581377  0.14050639  0.95046884     0.14300
H468        H  0.21203484  0.09948063  0.51023327     0.14100
C469        C  0.09817545  0.18475946  0.53730540     0.85900
C470        C  0.07041920  0.17058699  0.53808279    -0.54300
C471        C  0.06653422  0.15232376  0.00422516     0.08900
C472        C  0.09198425  0.14848816  0.97349042     0.19800
C473        C  0.11829714  0.16047904  0.53905381    -0.55000
C474        C  0.11514497  0.14091300  0.00727307     0.09000
C475        C  0.10120895  0.19633685  0.99027918    -0.54600
C476        C  0.09826829  0.17786914  0.95634188     0.09500
H477        H  0.05525759  0.17407626  0.56416347     0.14000
H478        H  0.08948552  0.13321755  0.94623163    -0.00200
H479        H  0.13485402  0.15930182  0.56221884     0.14300
H480        H  0.10525945  0.21773077  0.98428205     0.14100
C481        C  0.10311544  0.23508407  0.78630117     0.01700
C482        C  0.10492465  0.26372472  0.79316591     0.01700
C483        C  0.10615050  0.28154158  0.75651983    -0.18800
C484        C  0.10510438  0.27174692  0.71238311     0.01700
C485        C  0.10322545  0.24312181  0.70536164     0.01700
C486        C  0.10236655  0.22524409  0.74210996    -0.18800
H487        H  0.10117485  0.20346468  0.73615175     0.03700
H488        H  0.10733374  0.30331966  0.76252924     0.03700
C489        C  0.26573747  0.10521549  0.79340310     0.01700
C490        C  0.23770310  0.09950085  0.79542167     0.01700
C491        C  0.22261464  0.09588348  0.75584364    -0.18800
C492        C  0.23444317  0.09880634  0.71319815     0.01700
C493        C  0.26262887  0.10520428  0.71134189     0.01700
C494        C  0.27748681  0.10896536  0.75130223    -0.18800
H495        H  0.29884905  0.11407141  0.74951761     0.03700
H496        H  0.20121132  0.09109715  0.75847172     0.03700
C497        C  0.32426302  0.10495564  0.54513795     0.85900
C498        C  0.33515853  0.07572760  0.53850643    -0.54300
C499        C  0.35194430  0.07205531  0.00277021     0.08900
C500        C  0.35439817  0.09799372  0.97358268     0.19800
C501        C  0.34914874  0.12324688  0.54376302    -0.55000
C502        C  0.36486037  0.12027837  0.00671255     0.09000
C503        C  0.30883024  0.10966144  0.00110276    -0.54600
C504        C  0.32436965  0.10618382  0.96329072     0.09500
H505        H  0.33066453  0.05921430  0.56127943     0.14000
H506        H  0.36738100  0.09516825  0.94329502    -0.00200
H507        H  0.35344579  0.13807358  0.56975077     0.14300
H508        H  0.28701604  0.11284581  0.99933138     0.14100
C509        C  0.40159189  0.17989809  0.95257744     0.85900
C510        C  0.42924631  0.16555608  0.95440026    -0.54300
C511        C  0.43412278  0.15155454  0.49242126     0.08900
C512        C  0.40945407  0.15135640  0.52500102     0.19800
C513        C  0.38079860  0.15737826  0.95970207    -0.55000
C514        C  0.38528045  0.14141577  0.49563667     0.09000
C515        C  0.39910557  0.19675379  0.49631579    -0.54600
C516        C  0.40336552  0.18206120  0.53438208     0.09500
H517        H  0.44409381  0.16676815  0.92736858     0.14000
H518        H  0.41274177  0.13915591  0.55565408    -0.00200
H519        H  0.36166108  0.15629114  0.94252932     0.14300
H520        H  0.39447823  0.21846216  0.49710297     0.14100
C521        C  0.39845368  0.23936848  0.70662869     0.01700
C522        C  0.39567983  0.26806422  0.70513663     0.01700
C523        C  0.39364317  0.28378183  0.74478890    -0.18800
C524        C  0.39482345  0.27169063  0.78693097     0.01700
C525        C  0.39737133  0.24281352  0.78848930     0.01700
C526        C  0.39968936  0.22720484  0.74859953    -0.18800
H527        H  0.40223748  0.20525139  0.75033811     0.03700
H528        H  0.39174397  0.30578272  0.74267787     0.03700
C529        C  0.42549588  0.21672501  0.64338892    -0.02400
C530        C  0.40025532  0.22201232  0.66483966     0.07300
C531        C  0.37652521  0.21143597  0.64526915    -0.02500
C532        C  0.37737477  0.20013375  0.60170204    -0.02500
C533        C  0.40247795  0.19511918  0.57990229     0.07400
C534        C  0.42661019  0.20334150  0.60119523    -0.02700
Br535      Br  0.46112167  0.19809813  0.57117318    -0.01300
Br536      Br  0.45871587  0.22569897  0.67346665    -0.01300
Br537      Br  0.34383866  0.19415390  0.57053734    -0.01300
Br538      Br  0.34344696  0.20902137  0.67977113    -0.01300
C539        C  0.41931865  0.23082531  0.86089187    -0.02400
C540        C  0.39760488  0.22794587  0.83109569     0.07300
C541        C  0.37826101  0.20762160  0.83875870    -0.02500
C542        C  0.38221538  0.18924524  0.87355596    -0.02500
C543        C  0.39965584  0.19640665  0.90958304     0.07400
C544        C  0.41853615  0.21776095  0.90232468    -0.02700
Br545      Br  0.44599791  0.22765686  0.94561693    -0.01300
Br546      Br  0.45271134  0.24726946  0.84155585    -0.01300
Br547      Br  0.37248905  0.15202905  0.85876826    -0.01300
Br548      Br  0.34764462  0.20266386  0.79946686    -0.01300
C549        C  0.28624454  0.13089264  0.85915136    -0.02400
C550        C  0.28317513  0.10639864  0.83463829     0.07300
C551        C  0.29645264  0.08265561  0.85019850    -0.02500
C552        C  0.30906039  0.08239220  0.89240413    -0.02500
C553        C  0.31172828  0.10669014  0.91759899     0.07400
C554        C  0.30034226  0.13106143  0.90036674    -0.02700
Br555      Br  0.30342421  0.16476058  0.93355357    -0.01300
Br556      Br  0.27274783  0.16457757  0.83478816    -0.01300
Br557      Br  0.31909615  0.04768172  0.91731359    -0.01300
Br558      Br  0.29942346  0.05058318  0.81287975    -0.01300
C559        C  0.27226592  0.12702530  0.63682584    -0.02400
C560        C  0.27811198  0.10682591  0.66881766     0.07300
C561        C  0.30174223  0.09054880  0.66329685    -0.02500
C562        C  0.31889509  0.09470390  0.62707524    -0.02500
C563        C  0.30901855  0.10874503  0.58933589     0.07400
C564        C  0.28697454  0.12737367  0.59608842    -0.02700
Br565      Br  0.27959149  0.15661236  0.55489147    -0.01300
Br566      Br  0.24664714  0.15600919  0.65078234    -0.01300
Br567      Br  0.35696987  0.08441410  0.63335487    -0.01300
Br568      Br  0.31096135  0.06119026  0.70295140    -0.01300
C569        C  0.12521249  0.19769795  0.89189323    -0.02400
C570        C  0.10041643  0.18716511  0.90835058     0.07300
C571        C  0.07717996  0.18921103  0.88077874    -0.02500
C572        C  0.07839452  0.20288384  0.83914459    -0.02500
C573        C  0.10264161  0.21546785  0.82504294     0.07400
C574        C  0.12646293  0.21031850  0.84959311    -0.02700
Br575      Br  0.16118275  0.21758268  0.82255373    -0.01300
Br576      Br  0.15753247  0.19650485  0.92800841    -0.01300
Br577      Br  0.04709913  0.20322752  0.80058902    -0.01300
Br578      Br  0.04278065  0.17594924  0.90144274    -0.01300
C579        C  0.12636519  0.20916480  0.59729836    -0.02400
C580        C  0.10153673  0.20644614  0.57421896     0.07300
C581        C  0.07890878  0.22200918  0.58995228    -0.02500
C582        C  0.07903972  0.23318382  0.63343625    -0.02500
C583        C  0.10266508  0.23123557  0.65968075     0.07400
C584        C  0.12633254  0.21898263  0.64145013    -0.02700
Br585      Br  0.15811449  0.21296657  0.67771263    -0.01300
Br586      Br  0.16078076  0.20626492  0.56586101    -0.01300
Br587      Br  0.04567891  0.24762544  0.65874572    -0.01300
Br588      Br  0.04891692  0.23070481  0.55083831    -0.01300
C589        C  0.17702005  0.10969491  0.62731353    -0.02400
C590        C  0.18509311  0.09231913  0.59149159     0.07300
C591        C  0.20612584  0.07310439  0.60034540    -0.02500
C592        C  0.22134502  0.07436609  0.64051910    -0.02500
C593        C  0.21673257  0.09563126  0.67200048     0.07400
C594        C  0.19349858  0.11255762  0.66567730    -0.02700
Br595      Br  0.18404811  0.14083968  0.70830586    -0.01300
Br596      Br  0.14159538  0.12636958  0.62895120    -0.01300
Br597      Br  0.24626879  0.04512177  0.65458073    -0.01300
Br598      Br  0.21101256  0.04211468  0.56123028    -0.01300
C599        C  0.21188612  0.07796113  0.90893178    -0.02400
C600        C  0.19262914  0.09914149  0.91912801     0.07300
C601        C  0.18664700  0.11781623  0.88422552    -0.02500
C602        C  0.20536003  0.12102839  0.84962563    -0.02500
C603        C  0.22303779  0.09935657  0.83851703     0.07400
C604        C  0.22381707  0.07644285  0.86614812    -0.02700
Br605      Br  0.23505127  0.04152007  0.84208200    -0.01300
Br606      Br  0.21990544  0.04855739  0.94907750    -0.01300
Br607      Br  0.20367674  0.15379804  0.81504413    -0.01300
Br608      Br  0.14973189  0.12721121  0.86709736    -0.01300
C609        C  0.37183789  0.30576050  0.89771045    -0.02400
C610        C  0.39608082  0.31839443  0.91201824     0.07300
C611        C  0.41875209  0.31764157  0.88276394    -0.02500
C612        C  0.41698909  0.30539044  0.84006716    -0.02500
C613        C  0.39423056  0.28957627  0.82839448     0.07400
C614        C  0.37118988  0.29082565  0.85684158    -0.02700
Br615      Br  0.33813248  0.27355656  0.83831134    -0.01300
Br616      Br  0.33918170  0.30929512  0.93338147    -0.01300
Br617      Br  0.44619174  0.31105578  0.79812205    -0.01300
Br618      Br  0.45386208  0.32956787  0.90222094    -0.01300
C619        C  0.41862099  0.31683797  0.61847589    -0.02400
C620        C  0.39984111  0.31271062  0.58324654     0.07300
C621        C  0.37655124  0.29690722  0.59281711    -0.02500
C622        C  0.37413859  0.28449010  0.63477713    -0.02500
C623        C  0.39694911  0.28265389  0.66263926     0.07400
C624        C  0.41982502  0.29831384  0.65312309    -0.02700
Br625      Br  0.45242643  0.29635973  0.68806870    -0.01300
Br626      Br  0.43539382  0.35176785  0.63035959    -0.01300
Br627      Br  0.33873293  0.27524694  0.65725075    -0.01300
Br628      Br  0.34659254  0.29352524  0.55212571    -0.01300
C629        C  0.30071128  0.38218514  0.59661038    -0.02400
C630        C  0.31342522  0.40678375  0.58439748     0.07300
C631        C  0.31359864  0.42841922  0.61597401    -0.02500
C632        C  0.30059318  0.42581340  0.65815800    -0.02500
C633        C  0.28507226  0.40241761  0.66793684     0.07400
C634        C  0.28675063  0.38001411  0.63797213    -0.02700
Br635      Br  0.27201296  0.34543098  0.65529583    -0.01300
Br636      Br  0.30269419  0.35100151  0.55695433    -0.01300
Br637      Br  0.30395032  0.45482333  0.70203818    -0.01300
Br638      Br  0.32914447  0.46286268  0.60040349    -0.01300
C639        C  0.29900122  0.38376369  0.84181179    -0.02400
C640        C  0.27742246  0.40225091  0.83426071     0.07300
C641        C  0.27293979  0.42385001  0.86493232    -0.02500
C642        C  0.28612004  0.42369443  0.90646146    -0.02500
C643        C  0.30864094  0.40573611  0.91318612     0.07400
C644        C  0.31709148  0.38894462  0.87644224    -0.02700
Br645      Br  0.35502180  0.38352775  0.85998922    -0.01300
Br646      Br  0.30614293  0.35268570  0.80290204    -0.01300
Br647      Br  0.27494309  0.45085426  0.95058697    -0.01300
Br648      Br  0.25381381  0.45644066  0.84698192    -0.01300
C649        C  0.21741249  0.37759231  0.86047846    -0.02400
C650        C  0.21585537  0.39932118  0.82992741     0.07300
C651        C  0.19716902  0.42087031  0.83929243    -0.02500
C652        C  0.18343211  0.42254295  0.88116162    -0.02500
C653        C  0.18676664  0.40192542  0.91368522     0.07400
C654        C  0.20345406  0.37900569  0.90211920    -0.02700
Br655      Br  0.20740251  0.34887312  0.94274691    -0.01300
Br656      Br  0.23674666  0.34461964  0.84342044    -0.01300
Br657      Br  0.16242133  0.45486764  0.89455538    -0.01300
Br658      Br  0.19079844  0.44897784  0.79532148    -0.01300
C659        C  0.21206295  0.42046128  0.59226568    -0.02400
C660        C  0.19135700  0.40087456  0.58496110     0.07300
C661        C  0.18551181  0.38273779  0.62065437    -0.02500
C662        C  0.20455614  0.37893826  0.65455317    -0.02500
C663        C  0.22359476  0.39944872  0.66323482     0.07400
C664        C  0.22525729  0.42158061  0.63373472    -0.02700
Br665      Br  0.23999256  0.45581235  0.65350525    -0.01300
Br666      Br  0.22060867  0.44846949  0.54919872    -0.01300
Br667      Br  0.20192592  0.34696812  0.69168916    -0.01300
Br668      Br  0.14882332  0.37347359  0.63830836    -0.01300
C669        C  0.12795121  0.29336335  0.64543393    -0.02400
C670        C  0.10516405  0.29148283  0.67394329     0.07300
C671        C  0.08194534  0.30748270  0.66410190    -0.02500
C672        C  0.07964980  0.32058890  0.62218658    -0.02500
C673        C  0.10105195  0.31882512  0.59024393     0.06600
C674        C  0.12572815  0.30595063  0.60323168    -0.02700
Br675      Br  0.15689400  0.30517855  0.56366702    -0.01300
Br676      Br  0.16298141  0.28184918  0.66691621    -0.01300
Br677      Br  0.04604157  0.33873591  0.60806467    -0.01300
Br678      Br  0.05349579  0.31207060  0.70857281    -0.01300
C679        C  0.12515248  0.29531386  0.90393297    -0.02400
C680        C  0.09943632  0.30063698  0.92368222     0.07300
C681        C  0.07656923  0.28787061  0.90455460    -0.02500
C682        C  0.07811854  0.27770369  0.86070420    -0.02500
C683        C  0.10338495  0.27580580  0.83853098     0.07400
C684        C  0.12697616  0.28484754  0.86018049    -0.02700
Br685      Br  0.16118005  0.28669140  0.82851635    -0.01300
Br686      Br  0.15777548  0.29778471  0.93885634    -0.01300
Br687      Br  0.04489987  0.27113311  0.82888628    -0.01300
Br688      Br  0.04468156  0.27954007  0.93994463    -0.01300
O689        O  0.02603813  0.93625707  0.03804436    -0.73500
O690        O  0.47061495  0.87858641  0.03195761    -0.74500
O691        O  0.02986782  0.88013505  0.03574185    -0.63100
O692        O  0.46951773  0.93566111  0.03468888    -0.71500
O693        O  0.47168909  0.93750009  0.46039634    -0.71100
O694        O  0.02790825  0.87810748  0.46171962    -0.62300
O695        O  0.46838013  0.88112107  0.45799847    -0.74800
O696        O  0.02826083  0.93499663  0.46360953    -0.73600
Cu697      Cu  0.49884223  0.90733107  0.03773206     1.04600
Cu698      Cu  0.99917448  0.90766836  0.45825739     1.04300
C699        C  0.03589788  0.94457705  0.00124765     0.92700
C700        C  0.45907569  0.87239460  0.49501727     0.91800
C701        C  0.03953028  0.87157022  0.99842098     0.84000
C702        C  0.46195028  0.94599396  0.49767569     0.90200
O703        O  0.43376589  0.97771378  0.03549915    -0.73500
O704        O  0.37527162  0.53452871  0.03534561    -0.74500
O705        O  0.37798943  0.97494311  0.03531847    -0.63100
O706        O  0.43219001  0.53509553  0.03590196    -0.71500
O707        O  0.43404985  0.53429322  0.46150780    -0.71100
O708        O  0.37624314  0.97841496  0.46144916    -0.62300
O709        O  0.37772992  0.53808801  0.46148625    -0.74800
O710        O  0.43276547  0.97694587  0.46109090    -0.73600
Cu711      Cu  0.40454406  0.50570113  0.03815004     1.04600
Cu712      Cu  0.40496506  0.50691640  0.45874090     1.04300
C713        C  0.44191997  0.96791637  0.99806263     0.92700
C714        C  0.36884143  0.54684927  0.49924191     0.91800
C715        C  0.37003115  0.96596705  0.99752984     0.84000
C716        C  0.44204766  0.54361490  0.49901589     0.90200
O717        O  0.02838073  0.63051508  0.03798855    -0.73500
O718        O  0.47157310  0.57290937  0.03718009    -0.74500
O719        O  0.02842803  0.57318221  0.03891008    -0.63100
O720        O  0.46851640  0.62916771  0.03586731    -0.71500
O721        O  0.47342833  0.62984015  0.46199432    -0.71100
O722        O  0.02867243  0.57089357  0.46448665    -0.62300
O723        O  0.47213797  0.57330836  0.46274562    -0.74800
O724        O  0.03288616  0.62696692  0.46430386    -0.73600
Cu725      Cu  0.99928968  0.60179674  0.04019526     1.04600
Cu726      Cu  0.50182658  0.60055720  0.46080896     1.04300
C727        C  0.04127213  0.63604042  0.50184617     0.92700
C728        C  0.46285997  0.56425422  0.99967239     0.91800
C729        C  0.03707980  0.56262688  0.50218692     0.84000
C730        C  0.46009701  0.63647199  0.99744440     0.90200
O731        O  0.12191529  0.97351245  0.03880467    -0.73500
O732        O  0.06448652  0.53119766  0.04026467    -0.74500
O733        O  0.06543895  0.97396943  0.03920808    -0.63100
O734        O  0.12017093  0.53367730  0.03970653    -0.71500
O735        O  0.12222034  0.52956000  0.46572937    -0.71100
O736        O  0.06456621  0.97461750  0.46474562    -0.62300
O737        O  0.06629899  0.53141918  0.46581117    -0.74800
O738        O  0.11998979  0.96976292  0.46497183    -0.73600
Cu739      Cu  0.09329521  0.50298891  0.04222466     1.04600
Cu740      Cu  0.09357784  0.50137309  0.46273784     1.04300
C741        C  0.12792882  0.96060782  0.50250659     0.92700
C742        C  0.05685494  0.54071999  0.00287090     0.91800
C743        C  0.05621807  0.96537517  0.50190411     0.84000
C744        C  0.12785910  0.54256955  0.00172173     0.90200
C745        C  0.09616686  0.82202327  0.46110318     0.85900
C746        C  0.06840711  0.83651033  0.46220781    -0.54300
C747        C  0.06461126  0.85440153  0.99660646     0.08900
C748        C  0.09027478  0.85742338  0.02653513     0.19800
C749        C  0.11588941  0.84630592  0.45836993    -0.55000
C750        C  0.11333869  0.86473415  0.99252745     0.09000
C751        C  0.09992070  0.80985454  0.00776781    -0.54600
C752        C  0.09719976  0.82799101  0.04248002     0.09500
H753        H  0.05340627  0.83432098  0.43602611     0.14000
H754        H  0.08790662  0.87251193  0.05425523    -0.00200
H755        H  0.13125480  0.84846304  0.43244219     0.14300
H756        H  0.10444427  0.78836864  0.01287559     0.14100
C757        C  0.17387759  0.90272571  0.04269122     0.85900
C758        C  0.15864898  0.92987916  0.04234280    -0.54300
C759        C  0.14363015  0.93463008  0.50537199     0.08900
C760        C  0.14357197  0.90996602  0.47187794     0.19800
C761        C  0.15196811  0.88111697  0.03620451    -0.55000
C762        C  0.13511796  0.88518197  0.50120333     0.09000
C763        C  0.18975548  0.90137949  0.49801717    -0.54600
C764        C  0.17428852  0.90462794  0.46028670     0.09500
H765        H  0.16006244  0.94458670  0.06965599     0.14000
H766        H  0.13039534  0.91288924  0.44227722    -0.00200
H767        H  0.15119432  0.86230417  0.05430918     0.14300
H768        H  0.21157755  0.89782237  0.49649395     0.14100
C769        C  0.23816502  0.89982318  0.20650880     0.01700
C770        C  0.26691987  0.90152438  0.20897276     0.01700
C771        C  0.27859928  0.90246980  0.25150257    -0.18800
C772        C  0.26280960  0.90134365  0.29112913     0.01700
C773        C  0.23402900  0.89982364  0.28876326     0.01700
C774        C  0.22232484  0.89919732  0.24616700    -0.18800
H775        H  0.20038416  0.89826155  0.24376202     0.03700
H776        H  0.30050247  0.90400178  0.25388183     0.03700
C777        C  0.32551472  0.90817020  0.45578887     0.85900
C778        C  0.33932655  0.93572417  0.45722405    -0.54300
C779        C  0.35441627  0.94045941  0.99414498     0.08900
C780        C  0.35554464  0.91584503  0.02665438     0.19800
C781        C  0.34835293  0.88698835  0.46136332    -0.55000
C782        C  0.36494675  0.89130597  0.99652488     0.09000
C783        C  0.30975073  0.90613082  0.00041959    -0.54600
C784        C  0.32521390  0.90995757  0.03797576     0.09500
H785        H  0.33726076  0.95048327  0.43048909     0.14000
H786        H  0.36853025  0.91897649  0.05644963    -0.00200
H787        H  0.34968814  0.86809676  0.44260480     0.14300
H788        H  0.28825780  0.90142418  0.00218722     0.14100
C789        C  0.40261339  0.82875237  0.04015512     0.85900
C790        C  0.43160118  0.83819747  0.03119125    -0.54300
C791        C  0.43429032  0.85571630  0.49702990     0.08900
C792        C  0.40761416  0.85983840  0.47027222     0.19800
C793        C  0.38461640  0.85449462  0.04209972    -0.55000
C794        C  0.38664765  0.87069577  0.50579758     0.09000
C795        C  0.39593978  0.81421753  0.49565822    -0.54600
C796        C  0.39843507  0.83026115  0.45855217     0.09500
H797        H  0.44913595  0.83161550  0.05027705     0.14000
H798        H  0.40975666  0.87328339  0.44078889    -0.00200
H799        H  0.36975898  0.85835365  0.06859132     0.14300
H800        H  0.39160088  0.79261856  0.49318746     0.14100
C801        C  0.17526930  0.59814999  0.46200184     0.85900
C802        C  0.15871823  0.57221951  0.46129456    -0.54300
C803        C  0.14290653  0.56832939  0.99778738     0.08900
C804        C  0.14270915  0.59284837  0.03108135     0.19800
C805        C  0.15465283  0.62147610  0.46807077    -0.55000
C806        C  0.13628987  0.61855571  0.00127922     0.09000
C807        C  0.19010862  0.59790323  0.00755208    -0.54600
C808        C  0.17336101  0.59501034  0.04452582     0.09500
H809        H  0.16029868  0.55733343  0.43416811     0.14000
H810        H  0.12845421  0.59007471  0.05950239    -0.00200
H811        H  0.15581381  0.64050624  0.45046870     0.14300
H812        H  0.21203469  0.59948093  0.01023373     0.14100
C813        C  0.09817504  0.68475952  0.03730523     0.85900
C814        C  0.07041892  0.67058693  0.03808244    -0.54300
C815        C  0.06653428  0.65232385  0.50422561     0.08900
C816        C  0.09198428  0.64848812  0.47349070     0.19800
C817        C  0.11829683  0.66047919  0.03905377    -0.55000
C818        C  0.11514504  0.64091287  0.50727321     0.09000
C819        C  0.10120928  0.69633677  0.49027936    -0.54600
C820        C  0.09826851  0.67786904  0.45634209     0.09500
H821        H  0.05525717  0.67407611  0.06416312     0.14000
H822        H  0.08948541  0.63321749  0.44623198    -0.00200
H823        H  0.13485363  0.65930208  0.06221899     0.14300
H824        H  0.10525986  0.71773056  0.48428225     0.14100
C825        C  0.10311535  0.73508391  0.28630119     0.01700
C826        C  0.10492479  0.76372454  0.29316599     0.01700
C827        C  0.10615054  0.78154144  0.25651992    -0.18800
C828        C  0.10510409  0.77174682  0.21238318     0.01700
C829        C  0.10322497  0.74312173  0.20536165     0.01700
C830        C  0.10236620  0.72524397  0.24210996    -0.18800
H831        H  0.10117443  0.70346460  0.23615172     0.03700
H832        H  0.10733395  0.80331948  0.26252935     0.03700
C833        C  0.26573745  0.60521549  0.29340309     0.01700
C834        C  0.23770302  0.59950102  0.29542145     0.01700
C835        C  0.22261467  0.59588377  0.25584332    -0.18800
C836        C  0.23444331  0.59880660  0.21319795     0.01700
C837        C  0.26262904  0.60520442  0.21134187     0.01700
C838        C  0.27748691  0.60896536  0.25130232    -0.18800
H839        H  0.29884918  0.61407135  0.24951783     0.03700
H840        H  0.20121128  0.59109753  0.25847126     0.03700
C841        C  0.32426320  0.60495578  0.04513783     0.85900
C842        C  0.33515870  0.57572775  0.03850627    -0.54300
C843        C  0.35194409  0.57205514  0.50277052     0.08900
C844        C  0.35439794  0.59799353  0.47358294     0.19800
C845        C  0.34914893  0.62324702  0.04376300    -0.55000
C846        C  0.36486011  0.62027826  0.50671270     0.09000
C847        C  0.30882999  0.60966124  0.50110293    -0.54600
C848        C  0.32436944  0.60618360  0.46329091     0.09500
H849        H  0.33066471  0.55921447  0.06127916     0.14000
H850        H  0.36738082  0.59516802  0.44329524    -0.00200
H851        H  0.35344600  0.63807359  0.06975070     0.14300
H852        H  0.28701586  0.61284551  0.49933150     0.14100
C853        C  0.40159166  0.67989795  0.45257733     0.85900
C854        C  0.42924607  0.66555597  0.45440032    -0.54300
C855        C  0.43412303  0.65155468  0.99242117     0.08900
C856        C  0.40945435  0.65135655  0.02500103     0.19800
C857        C  0.38079839  0.65737809  0.45970200    -0.55000
C858        C  0.38528067  0.64141593  0.99563670     0.09000
C859        C  0.39910584  0.69675391  0.99631580    -0.54600
C860        C  0.40336582  0.68206137  0.03438210     0.09500
H861        H  0.44409365  0.66676803  0.42736866     0.14000
H862        H  0.41274208  0.63915607  0.05565410    -0.00200
H863        H  0.36166087  0.65629089  0.44252901     0.14300
H864        H  0.39447846  0.71846236  0.99710294     0.14100
C865        C  0.39845374  0.73936875  0.20662864     0.01700
C866        C  0.39567990  0.76806448  0.20513668     0.01700
C867        C  0.39364330  0.78378203  0.24478903    -0.18800
C868        C  0.39482359  0.77169075  0.28693106     0.01700
C869        C  0.39737132  0.74281364  0.28848928     0.01700
C870        C  0.39968932  0.72720498  0.24859943    -0.18800
H871        H  0.40223731  0.70525164  0.25033786     0.03700
H872        H  0.39174414  0.80578292  0.24267808     0.03700
C873        C  0.42549603  0.71672540  0.14338890    -0.02400
C874        C  0.40025545  0.72201265  0.16483959     0.07300
C875        C  0.37652538  0.71143624  0.14526907    -0.02500
C876        C  0.37737500  0.70013394  0.10170203    -0.02500
C877        C  0.40247820  0.69511939  0.07990232     0.07400
C878        C  0.42661039  0.70334189  0.10119520    -0.02700
Br879      Br  0.46112182  0.69809878  0.07117297    -0.01300
Br880      Br  0.45871598  0.72569942  0.17346675    -0.01300
Br881      Br  0.34383893  0.69415393  0.07053739    -0.01300
Br882      Br  0.34344707  0.70902163  0.17977092    -0.01300
C883        C  0.41931852  0.73082530  0.36089192    -0.02400
C884        C  0.39760480  0.72794588  0.33109564     0.07300
C885        C  0.37826092  0.70762160  0.33875855    -0.02500
C886        C  0.38221523  0.68924520  0.37355579    -0.02500
C887        C  0.39965568  0.69640652  0.40958292     0.07400
C888        C  0.41853599  0.71776085  0.40232466    -0.02700
Br889      Br  0.44599764  0.72765672  0.44561704    -0.01300
Br890      Br  0.45271123  0.74726947  0.34155601    -0.01300
Br891      Br  0.37248875  0.65202906  0.35876803    -0.01300
Br892      Br  0.34764455  0.70266391  0.29946664    -0.01300
C893        C  0.28624431  0.63089250  0.35915162    -0.02400
C894        C  0.28317501  0.60639854  0.33463842     0.07300
C895        C  0.29645251  0.58265549  0.35019863    -0.02500
C896        C  0.30906018  0.58239202  0.39240432    -0.02500
C897        C  0.31172804  0.60668994  0.41759921     0.07400
C898        C  0.30034205  0.63106126  0.40036700    -0.02700
Br899      Br  0.30342410  0.66476038  0.43355394    -0.01300
Br900      Br  0.27274735  0.66457741  0.33478865    -0.01300
Br901      Br  0.31909623  0.54768156  0.41731365    -0.01300
Br902      Br  0.29942356  0.55058317  0.31287978    -0.01300
C903        C  0.27226630  0.62702564  0.13682602    -0.02400
C904        C  0.27811220  0.60682612  0.16881770     0.07300
C905        C  0.30174237  0.59054890  0.16329679    -0.02500
C906        C  0.31889525  0.59470399  0.12707521    -0.02500
C907        C  0.30901873  0.60874513  0.08933585     0.07400
C908        C  0.28697485  0.62737390  0.09608850    -0.02700
Br909      Br  0.27959197  0.65661262  0.05489158    -0.01300
Br910      Br  0.24664786  0.65600980  0.15078278    -0.01300
Br911      Br  0.35696999  0.58441414  0.13335493    -0.01300
Br912      Br  0.31096147  0.56119046  0.20295151    -0.01300
C913        C  0.12521267  0.69769783  0.39189321    -0.02400
C914        C  0.10041663  0.68716503  0.40835076     0.07300
C915        C  0.07718013  0.68921092  0.38077903    -0.02500
C916        C  0.07839458  0.70288362  0.33914479    -0.02500
C917        C  0.10264164  0.71546764  0.32504295     0.07400
C918        C  0.12646303  0.71031832  0.34959302    -0.02700
Br919      Br  0.16118282  0.71758253  0.32255349    -0.01300
Br920      Br  0.15753276  0.69650469  0.42800818    -0.01300
Br921      Br  0.04709907  0.70322698  0.30058942    -0.01300
Br922      Br  0.04278091  0.67594907  0.40144321    -0.01300
C923        C  0.12636470  0.70916501  0.09729814    -0.02400
C924        C  0.10153623  0.70644623  0.07421879     0.07300
C925        C  0.07890823  0.72200918  0.08995218    -0.02500
C926        C  0.07903920  0.73318387  0.13343614    -0.02500
C927        C  0.10266456  0.73123556  0.15968068     0.07400
C928        C  0.12633204  0.71898269  0.14145001    -0.02700
Br929      Br  0.15811395  0.71296642  0.17771265    -0.01300
Br930      Br  0.16078027  0.70626535  0.06586076    -0.01300
Br931      Br  0.04567843  0.74762567  0.15874550    -0.01300
Br932      Br  0.04891622  0.73070463  0.05083837    -0.01300
C933        C  0.17702025  0.60969536  0.12731342    -0.02400
C934        C  0.18509300  0.59231928  0.09149176     0.07300
C935        C  0.20612556  0.57310440  0.10034569    -0.02500
C936        C  0.22134491  0.57436621  0.14051921    -0.02500
C937        C  0.21673278  0.59563163  0.17200023     0.07400
C938        C  0.19349896  0.61255818  0.16567692    -0.02700
Br939      Br  0.18404879  0.64084038  0.20830531    -0.01300
Br940      Br  0.14159564  0.62637005  0.12895131    -0.01300
Br941      Br  0.24626849  0.54512180  0.15458116    -0.01300
Br942      Br  0.21101165  0.54211429  0.06123129    -0.01300
C943        C  0.21188565  0.57796062  0.40893093    -0.02400
C944        C  0.19262886  0.59914109  0.41912755     0.07300
C945        C  0.18664674  0.61781598  0.38422527    -0.02500
C946        C  0.20535976  0.62102825  0.34962539    -0.02500
C947        C  0.22303762  0.59935653  0.33851670     0.07400
C948        C  0.22381676  0.57644263  0.36614736    -0.02700
Br949      Br  0.23505117  0.54152007  0.34208073    -0.01300
Br950      Br  0.21990454  0.54855640  0.44907596    -0.01300
Br951      Br  0.20367641  0.65379791  0.31504395    -0.01300
Br952      Br  0.14973161  0.62721104  0.36709740    -0.01300
C953        C  0.37183837  0.80576053  0.39771080    -0.02400
C954        C  0.39608132  0.81839444  0.41201842     0.07300
C955        C  0.41875254  0.81764157  0.38276404    -0.02500
C956        C  0.41698943  0.80539050  0.34006724    -0.02500
C957        C  0.39423085  0.78957636  0.32839465     0.07400
C958        C  0.37119028  0.79082567  0.35684199    -0.02700
Br959      Br  0.33813292  0.77355637  0.33831237    -0.01300
Br960      Br  0.33918222  0.80929517  0.43338193    -0.01300
Br961      Br  0.44619205  0.81105581  0.29812211    -0.01300
Br962      Br  0.45386259  0.82956772  0.40222106    -0.01300
C963        C  0.41862090  0.81683819  0.11847569    -0.02400
C964        C  0.39984085  0.81271092  0.08324653     0.07300
C965        C  0.37655089  0.79690771  0.09281744    -0.02500
C966        C  0.37413839  0.78449055  0.13477749    -0.02500
C967        C  0.39694905  0.78265421  0.16263935     0.07400
C968        C  0.41982496  0.79831413  0.15312301    -0.02700
Br969      Br  0.45242647  0.79636014  0.18806848    -0.01300
Br970      Br  0.43539412  0.85176790  0.13035902    -0.01300
Br971      Br  0.33873281  0.77524739  0.15725152    -0.01300
Br972      Br  0.34659185  0.79352629  0.05212653    -0.01300
C973        C  0.30071073  0.88218561  0.09661008    -0.02400
C974        C  0.31342499  0.90678412  0.08439749     0.07300
C975        C  0.31359872  0.92841941  0.11597436    -0.02500
C976        C  0.30059311  0.92581364  0.15815824    -0.02500
C977        C  0.28507208  0.90241791  0.16793695     0.07400
C978        C  0.28675023  0.88001452  0.13797196    -0.02700
Br979      Br  0.27201262  0.84543139  0.15529562    -0.01300
Br980      Br  0.30269289  0.85100218  0.05695345    -0.01300
Br981      Br  0.30395001  0.95482373  0.20203829    -0.01300
Br982      Br  0.32914539  0.96286257  0.10040456    -0.01300
C983        C  0.29900160  0.88376393  0.34181164    -0.02400
C984        C  0.27742279  0.90225114  0.33426087     0.07300
C985        C  0.27294011  0.92385003  0.36493284    -0.02500
C986        C  0.28612041  0.92369422  0.40646196    -0.02500
C987        C  0.30864132  0.90573588  0.41318632     0.07400
C988        C  0.31709183  0.88894455  0.37644222    -0.02700
Br989      Br  0.35502211  0.88352741  0.35998909    -0.01300
Br990      Br  0.30614323  0.85268607  0.30290170    -0.01300
Br991      Br  0.27494338  0.95085371  0.45058803    -0.01300
Br992      Br  0.25381406  0.95644073  0.34698300    -0.01300
C993        C  0.21741295  0.87759282  0.36047957    -0.02400
C994        C  0.21585558  0.89932145  0.32992807     0.07300
C995        C  0.19716896  0.92087043  0.33929265    -0.02500
C996        C  0.18343179  0.92254309  0.38116160    -0.02500
C997        C  0.18676662  0.90192587  0.41368564     0.07400
C998        C  0.20345442  0.87900628  0.40212022    -0.02700
Br999      Br  0.20740320  0.84887401  0.44274860    -0.01300
Br1000     Br  0.23674755  0.84462028  0.34342225    -0.01300
Br1001     Br  0.16241985  0.95486725  0.39455414    -0.01300
Br1002     Br  0.19079854  0.94897788  0.29532155    -0.01300
C1003       C  0.21206336  0.92046061  0.09226539    -0.02400
C1004       C  0.19135723  0.90087406  0.08496099     0.07300
C1005       C  0.18551169  0.88273764  0.12065464    -0.02500
C1006       C  0.20455585  0.87893819  0.15455378    -0.02500
C1007       C  0.22359461  0.89944858  0.16323523     0.07400
C1008       C  0.22525741  0.92158023  0.13373468    -0.02700
Br1009     Br  0.23999243  0.95581216  0.15350495    -0.01300
Br1010     Br  0.22060962  0.94846831  0.04919787    -0.01300
Br1011     Br  0.20192523  0.84696823  0.19169020    -0.01300
Br1012     Br  0.14882302  0.87347402  0.13830849    -0.01300
C1013       C  0.12795090  0.79336321  0.14543395    -0.02400
C1014       C  0.10516377  0.79148275  0.17394340     0.07300
C1015       C  0.08194508  0.80748266  0.16410203    -0.02500
C1016       C  0.07964956  0.82058886  0.12218671    -0.02500
C1017       C  0.10105168  0.81882508  0.09024404     0.06600
C1018       C  0.12572785  0.80595053  0.10323174    -0.02700
Br1019     Br  0.15689370  0.80517858  0.06366713    -0.01300
Br1020     Br  0.16298112  0.78184899  0.16691604    -0.01300
Br1021     Br  0.04604143  0.83873597  0.10806478    -0.01300
Br1022     Br  0.05349552  0.81207063  0.20857292    -0.01300
C1023       C  0.12515293  0.79531410  0.40393261    -0.02400
C1024       C  0.09943681  0.80063709  0.42368213     0.07300
C1025       C  0.07656977  0.78787042  0.40455497    -0.02500
C1026       C  0.07811897  0.77770334  0.36070468    -0.02500
C1027       C  0.10338528  0.77580560  0.33853109     0.07400
C1028       C  0.12697652  0.78484758  0.36018025    -0.02700
Br1029     Br  0.16118034  0.78669143  0.32851579    -0.01300
Br1030     Br  0.15777604  0.79778536  0.43885552    -0.01300
Br1031     Br  0.04490018  0.77113235  0.32888736    -0.01300
Br1032     Br  0.04468226  0.77953990  0.43994542    -0.01300
O1033       O  0.02603810  0.93625698  0.53804443    -0.73500
O1034       O  0.47061515  0.87858642  0.53195811    -0.74500
O1035       O  0.02986799  0.88013498  0.53574186    -0.63100
O1036       O  0.46951777  0.93566112  0.53468988    -0.71500
O1037       O  0.47168911  0.93749998  0.96039531    -0.71100
O1038       O  0.02790811  0.87810761  0.96171960    -0.62300
O1039       O  0.46837989  0.88112101  0.95799797    -0.74800
O1040       O  0.02826075  0.93499674  0.96360944    -0.73600
Cu1041     Cu  0.49884233  0.90733109  0.53773280     1.04600
Cu1042     Cu  0.99917433  0.90766849  0.95825735     1.04300
C1043       C  0.03589785  0.94457700  0.50124780     0.92700
C1044       C  0.45907540  0.87239462  0.99501681     0.91800
C1045       C  0.03953043  0.87157011  0.49842101     0.84000
C1046       C  0.46195027  0.94599391  0.99767464     0.90200
O1047       O  0.43376581  0.97771381  0.53550022    -0.73500
O1048       O  0.37527154  0.53452856  0.53534604    -0.74500
O1049       O  0.37798929  0.97494302  0.53531916    -0.63100
O1050       O  0.43218996  0.53509541  0.53590283    -0.71500
O1051       O  0.43404988  0.53429336  0.96150691    -0.71100
O1052       O  0.37624304  0.97841509  0.96144849    -0.62300
O1053       O  0.37772999  0.53808828  0.96148582    -0.74800
O1054       O  0.43276543  0.97694585  0.96108982    -0.73600
Cu1055     Cu  0.40454402  0.50570098  0.53815072     1.04600
Cu1056     Cu  0.40496502  0.50691660  0.95874016     1.04300
C1057       C  0.44191997  0.96791641  0.49806376     0.92700
C1058       C  0.36884154  0.54684949  0.99924153     0.91800
C1059       C  0.37003116  0.96596692  0.49753045     0.84000
C1060       C  0.44204773  0.54361500  0.99901499     0.90200
O1061       O  0.02838061  0.63051533  0.53798895    -0.73500
O1062       O  0.47157291  0.57290946  0.53718088    -0.74500
O1063       O  0.02842785  0.57318245  0.53891021    -0.63100
O1064       O  0.46851615  0.62916780  0.53586754    -0.71500
O1065       O  0.47342859  0.62984030  0.96199411    -0.71100
O1066       O  0.02867264  0.57089331  0.96448650    -0.62300
O1067       O  0.47213815  0.57330847  0.96274485    -0.74800
O1068       O  0.03288630  0.62696665  0.96430345    -0.73600
Cu1069     Cu  0.99928951  0.60179699  0.54019552     1.04600
Cu1070     Cu  0.50182681  0.60055730  0.96080845     1.04300
C1071       C  0.04127220  0.63604021  0.00184574     0.92700
C1072       C  0.46285982  0.56425419  0.49967321     0.91800
C1073       C  0.03708002  0.56262665  0.00218678     0.84000
C1074       C  0.46009675  0.63647193  0.49744454     0.90200
O1075       O  0.12191488  0.97351264  0.53880483    -0.73500
O1076       O  0.06448617  0.53119785  0.54026476    -0.74500
O1077       O  0.06543868  0.97396955  0.53920823    -0.63100
O1078       O  0.12017055  0.53367746  0.53970658    -0.71500
O1079       O  0.12222054  0.52956004  0.96572927    -0.71100
O1080       O  0.06456643  0.97461739  0.96474546    -0.62300
O1081       O  0.06629925  0.53141902  0.96581107    -0.74800
O1082       O  0.11999010  0.96976273  0.96497168    -0.73600
Cu1083     Cu  0.09329481  0.50298912  0.54222472     1.04600
Cu1084     Cu  0.09357812  0.50137298  0.96273774     1.04300
C1085       C  0.12792920  0.96060763  0.00250642     0.92700
C1086       C  0.05685466  0.54072017  0.50287096     0.91800
C1087       C  0.05621825  0.96537511  0.00190400     0.84000
C1088       C  0.12785886  0.54256956  0.50172180     0.90200
C1089       C  0.09616653  0.82202320  0.96110330     0.85900
C1090       C  0.06840683  0.83651037  0.96220783    -0.54300
C1091       C  0.06461143  0.85440143  0.49660642     0.08900
C1092       C  0.09027496  0.85742340  0.52653506     0.19800
C1093       C  0.11588922  0.84630575  0.95837007    -0.55000
C1094       C  0.11333881  0.86473427  0.49252732     0.09000
C1095       C  0.09992113  0.80985461  0.50776771    -0.54600
C1096       C  0.09720009  0.82799105  0.54247991     0.09500
H1097       H  0.05340606  0.83432107  0.93602637     0.14000
H1098       H  0.08790675  0.87251192  0.55425514    -0.00200
H1099       H  0.13125466  0.84846276  0.93244240     0.14300
H1100       H  0.10444478  0.78836874  0.51287547     0.14100
C1101       C  0.17387741  0.90272611  0.54269137     0.85900
C1102       C  0.15864853  0.92987940  0.54234309    -0.54300
C1103       C  0.14363053  0.93462986  0.00537176     0.08900
C1104       C  0.14357211  0.90996574  0.97187785     0.19800
C1105       C  0.15196819  0.88111714  0.53620438    -0.55000
C1106       C  0.13511791  0.88518181  0.00120342     0.09000
C1107       C  0.18975558  0.90137876  0.99801693    -0.54600
C1108       C  0.17428860  0.90462737  0.96028649     0.09500
H1109       H  0.16006183  0.94458690  0.56965637     0.14000
H1110       H  0.13039549  0.91288905  0.94227713    -0.00200
H1111       H  0.15119455  0.86230427  0.55430884     0.14300
H1112       H  0.21157758  0.89782139  0.99649362     0.14100
C1113       C  0.23816510  0.89982315  0.70650845     0.01700
C1114       C  0.26691995  0.90152421  0.70897256     0.01700
C1115       C  0.27859927  0.90246950  0.75150244    -0.18800
C1116       C  0.26280947  0.90134342  0.79112889     0.01700
C1117       C  0.23402887  0.89982355  0.78876285     0.01700
C1118       C  0.22232481  0.89919736  0.74616655    -0.18800
H1119       H  0.20038412  0.89826169  0.74376145     0.03700
H1120       H  0.30050246  0.90400138  0.75388181     0.03700
C1121       C  0.32551434  0.90817050  0.95578875     0.85900
C1122       C  0.33932634  0.93572438  0.95722366    -0.54300
C1123       C  0.35441641  0.94045921  0.49414543     0.08900
C1124       C  0.35554491  0.91584474  0.52665461     0.19800
C1125       C  0.34835245  0.88698849  0.96136331    -0.55000
C1126       C  0.36494718  0.89130577  0.49652493     0.09000
C1127       C  0.30975109  0.90613027  0.50041968    -0.54600
C1128       C  0.32521422  0.90995710  0.53797586     0.09500
H1129       H  0.33726059  0.95048340  0.93048867     0.14000
H1130       H  0.36853047  0.91897621  0.55644994    -0.00200
H1131       H  0.34968759  0.86809700  0.94260501     0.14300
H1132       H  0.28825822  0.90142353  0.50218729     0.14100
C1133       C  0.40261381  0.82875215  0.54015522     0.85900
C1134       C  0.43160157  0.83819737  0.53119164    -0.54300
C1135       C  0.43428992  0.85571639  0.99702951     0.08900
C1136       C  0.40761368  0.85983853  0.97027196     0.19800
C1137       C  0.38461672  0.85449434  0.54209976    -0.55000
C1138       C  0.38664727  0.87069599  0.00579746     0.09000
C1139       C  0.39593916  0.81421773  0.99565819    -0.54600
C1140       C  0.39843448  0.83026127  0.95855203     0.09500
H1141       H  0.44913632  0.83161551  0.55027766     0.14000
H1142       H  0.40975614  0.87328348  0.94078864    -0.00200
H1143       H  0.36975926  0.85835331  0.56859130     0.14300
H1144       H  0.39160017  0.79261878  0.99318759     0.14100
C1145       C  0.17526939  0.59815029  0.96200210     0.85900
C1146       C  0.15871844  0.57221971  0.96129469    -0.54300
C1147       C  0.14290641  0.56832928  0.49778735     0.08900
C1148       C  0.14270918  0.59284825  0.53108132     0.19800
C1149       C  0.15465281  0.62147631  0.96807093    -0.55000
C1150       C  0.13628994  0.61855557  0.50127914     0.09000
C1151       C  0.19010864  0.59790290  0.50755176    -0.54600
C1152       C  0.17336110  0.59501014  0.54452563     0.09500
H1153       H  0.16029908  0.55733359  0.93416829     0.14000
H1154       H  0.12845431  0.59007464  0.55950230    -0.00200
H1155       H  0.15581368  0.64050645  0.95046875     0.14300
H1156       H  0.21203473  0.59948056  0.51023325     0.14100
C1157       C  0.09817543  0.68475946  0.53730539     0.85900
C1158       C  0.07041920  0.67058700  0.53808282    -0.54300
C1159       C  0.06653417  0.65232380  0.00422520     0.08900
C1160       C  0.09198422  0.64848815  0.97349044     0.19800
C1161       C  0.11829712  0.66047906  0.53905384    -0.55000
C1162       C  0.11514491  0.64091297  0.00727314     0.09000
C1163       C  0.10120891  0.69633685  0.99027921    -0.54600
C1164       C  0.09826830  0.67786911  0.95634191     0.09500
H1165       H  0.05525758  0.67407631  0.56416348     0.14000
H1166       H  0.08948549  0.63321753  0.94623168    -0.00200
H1167       H  0.13485392  0.65930183  0.56221900     0.14300
H1168       H  0.10525937  0.71773067  0.98428213     0.14100
C1169       C  0.10311543  0.73508402  0.78630115     0.01700
C1170       C  0.10492465  0.76372466  0.79316591     0.01700
C1171       C  0.10615053  0.78154152  0.75651982    -0.18800
C1172       C  0.10510435  0.77174687  0.71238309     0.01700
C1173       C  0.10322541  0.74312176  0.70536162     0.01700
C1174       C  0.10236658  0.72524402  0.74210994    -0.18800
H1175       H  0.10117499  0.70346460  0.73615173     0.03700
H1176       H  0.10733387  0.80331959  0.76252924     0.03700
C1177       C  0.26573746  0.60521556  0.79340317     0.01700
C1178       C  0.23770308  0.59950090  0.79542171     0.01700
C1179       C  0.22261467  0.59588348  0.75584369    -0.18800
C1180       C  0.23444318  0.59880632  0.71319823     0.01700
C1181       C  0.26262888  0.60520432  0.71134201     0.01700
C1182       C  0.27748680  0.60896543  0.75130234    -0.18800
H1183       H  0.29884906  0.61407150  0.74951773     0.03700
H1184       H  0.20121130  0.59109713  0.75847180     0.03700
C1185       C  0.32426300  0.60495562  0.54513800     0.85900
C1186       C  0.33515848  0.57572757  0.53850650    -0.54300
C1187       C  0.35194427  0.57205536  0.00277025     0.08900
C1188       C  0.35439813  0.59799376  0.97358272     0.19800
C1189       C  0.34914871  0.62324686  0.54376311    -0.55000
C1190       C  0.36486033  0.62027841  0.00671256     0.09000
C1191       C  0.30883018  0.60966143  0.00110278    -0.54600
C1192       C  0.32436964  0.60618383  0.96329073     0.09500
H1193       H  0.33066446  0.55921433  0.56127938     0.14000
H1194       H  0.36738100  0.59516828  0.94329499    -0.00200
H1195       H  0.35344576  0.63807354  0.56975086     0.14300
H1196       H  0.28701607  0.61284571  0.99933137     0.14100
C1197       C  0.40159189  0.67989810  0.95257739     0.85900
C1198       C  0.42924630  0.66555609  0.95440029    -0.54300
C1199       C  0.43412276  0.65155456  0.49242119     0.08900
C1200       C  0.40945407  0.65135643  0.52500102     0.19800
C1201       C  0.38079863  0.65737826  0.95970209    -0.55000
C1202       C  0.38528041  0.64141580  0.49563670     0.09000
C1203       C  0.39910555  0.69675379  0.49631573    -0.54600
C1204       C  0.40336553  0.68206123  0.53438204     0.09500
H1205       H  0.44409381  0.66676811  0.92736858     0.14000
H1206       H  0.41274179  0.63915596  0.55565407    -0.00200
H1207       H  0.36166104  0.65629113  0.94252920     0.14300
H1208       H  0.39447813  0.71846214  0.49710288     0.14100
C1209       C  0.39845367  0.73936855  0.70662869     0.01700
C1210       C  0.39567979  0.76806427  0.70513662     0.01700
C1211       C  0.39364311  0.78378191  0.74478888    -0.18800
C1212       C  0.39482345  0.77169071  0.78693096     0.01700
C1213       C  0.39737134  0.74281362  0.78848931     0.01700
C1214       C  0.39968934  0.72720489  0.74859955    -0.18800
H1215       H  0.40223739  0.70525156  0.75033814     0.03700
H1216       H  0.39174388  0.80578280  0.74267783     0.03700
C1217       C  0.42549590  0.71672510  0.64338889    -0.02400
C1218       C  0.40025534  0.72201235  0.66483968     0.07300
C1219       C  0.37652524  0.71143593  0.64526918    -0.02500
C1220       C  0.37737476  0.70013372  0.60170205    -0.02500
C1221       C  0.40247794  0.69511923  0.57990226     0.07400
C1222       C  0.42661017  0.70334162  0.60119515    -0.02700
Br1223     Br  0.46112160  0.69809828  0.57117290    -0.01300
Br1224     Br  0.45871591  0.72569909  0.67346661    -0.01300
Br1225     Br  0.34383860  0.69415383  0.57053736    -0.01300
Br1226     Br  0.34344701  0.70902130  0.67977117    -0.01300
C1227       C  0.41931863  0.73082539  0.86089189    -0.02400
C1228       C  0.39760485  0.72794595  0.83109570     0.07300
C1229       C  0.37826097  0.70762167  0.83875869    -0.02500
C1230       C  0.38221537  0.68924528  0.87355590    -0.02500
C1231       C  0.39965584  0.69640665  0.90958298     0.07400
C1232       C  0.41853612  0.71776098  0.90232466    -0.02700
Br1233     Br  0.44599784  0.72765681  0.94561694    -0.01300
Br1234     Br  0.45271137  0.74726956  0.84155591    -0.01300
Br1235     Br  0.37248893  0.65202913  0.85876823    -0.01300
Br1236     Br  0.34764455  0.70266384  0.79946686    -0.01300
C1237       C  0.28624460  0.63089266  0.85915137    -0.02400
C1238       C  0.28317514  0.60639866  0.83463834     0.07300
C1239       C  0.29645264  0.58265562  0.85019855    -0.02500
C1240       C  0.30906035  0.58239219  0.89240421    -0.02500
C1241       C  0.31172823  0.60669014  0.91759905     0.07400
C1242       C  0.30034231  0.63106146  0.90036675    -0.02700
Br1243     Br  0.30342430  0.66476065  0.93355353    -0.01300
Br1244     Br  0.27274791  0.66457756  0.83478815    -0.01300
Br1245     Br  0.31909623  0.54768168  0.91731359    -0.01300
Br1246     Br  0.29942335  0.55058312  0.81288000    -0.01300
C1247       C  0.27226592  0.62702532  0.63682594    -0.02400
C1248       C  0.27811197  0.60682596  0.66881780     0.07300
C1249       C  0.30174217  0.59054879  0.66329696    -0.02500
C1250       C  0.31889502  0.59470383  0.62707532    -0.02500
C1251       C  0.30901850  0.60874497  0.58933596     0.07400
C1252       C  0.28697449  0.62737361  0.59608846    -0.02700
Br1253     Br  0.27959156  0.65661230  0.55489149    -0.01300
Br1254     Br  0.24664723  0.65600930  0.65078236    -0.01300
Br1255     Br  0.35696977  0.58441402  0.63335492    -0.01300
Br1256     Br  0.31096127  0.56119036  0.70295174    -0.01300
C1257       C  0.12521253  0.69769805  0.89189331    -0.02400
C1258       C  0.10041647  0.68716515  0.90835062     0.07300
C1259       C  0.07718004  0.68921098  0.88077870    -0.02500
C1260       C  0.07839459  0.70288378  0.83914455    -0.02500
C1261       C  0.10264166  0.71546781  0.82504292     0.07400
C1262       C  0.12646298  0.71031857  0.84959316    -0.02700
Br1263     Br  0.16118282  0.71758263  0.82255372    -0.01300
Br1264     Br  0.15753254  0.69650480  0.92800841    -0.01300
Br1265     Br  0.04709922  0.70322745  0.80058900    -0.01300
Br1266     Br  0.04278075  0.67594896  0.90144244    -0.01300
C1267       C  0.12636523  0.70916479  0.59729835    -0.02400
C1268       C  0.10153676  0.70644614  0.57421895     0.07300
C1269       C  0.07890883  0.72200921  0.58995223    -0.02500
C1270       C  0.07903972  0.73318382  0.63343622    -0.02500
C1271       C  0.10266508  0.73123555  0.65968073     0.07400
C1272       C  0.12633258  0.71898264  0.64145011    -0.02700
Br1273     Br  0.15811454  0.71296653  0.67771262    -0.01300
Br1274     Br  0.16078083  0.70626484  0.56586103    -0.01300
Br1275     Br  0.04567885  0.74762536  0.65874568    -0.01300
Br1276     Br  0.04891697  0.73070477  0.55083826    -0.01300
C1277       C  0.17702013  0.60969498  0.62731352    -0.02400
C1278       C  0.18509313  0.59231916  0.59149163     0.07300
C1279       C  0.20612585  0.57310443  0.60034546    -0.02500
C1280       C  0.22134504  0.57436613  0.64051915    -0.02500
C1281       C  0.21673261  0.59563128  0.67200055     0.07400
C1282       C  0.19349864  0.61255766  0.66567732    -0.02700
Br1283     Br  0.18404818  0.64083966  0.70830592    -0.01300
Br1284     Br  0.14159544  0.62636954  0.62895122    -0.01300
Br1285     Br  0.24626888  0.54512188  0.65458072    -0.01300
Br1286     Br  0.21101265  0.54211479  0.56123027    -0.01300
C1287       C  0.21188600  0.57796106  0.90893162    -0.02400
C1288       C  0.19262909  0.59914147  0.91912797     0.07300
C1289       C  0.18664700  0.61781625  0.88422554    -0.02500
C1290       C  0.20535999  0.62102837  0.84962561    -0.02500
C1291       C  0.22303775  0.59935657  0.83851701     0.07400
C1292       C  0.22381695  0.57644280  0.86614796    -0.02700
Br1293     Br  0.23505114  0.54152003  0.84208168    -0.01300
Br1294     Br  0.21990532  0.54855730  0.94907721    -0.01300
Br1295     Br  0.20367681  0.65379801  0.81504413    -0.01300
Br1296     Br  0.14973193  0.62721115  0.86709733    -0.01300
C1297       C  0.37183789  0.80576049  0.89771050    -0.02400
C1298       C  0.39608082  0.81839443  0.91201828     0.07300
C1299       C  0.41875209  0.81764159  0.88276393    -0.02500
C1300       C  0.41698909  0.80539045  0.84006719    -0.02500
C1301       C  0.39423056  0.78957633  0.82839449     0.07400
C1302       C  0.37118988  0.79082571  0.85684157    -0.02700
Br1303     Br  0.33813250  0.77355666  0.83831129    -0.01300
Br1304     Br  0.33918164  0.80929506  0.93338146    -0.01300
Br1305     Br  0.44619164  0.81105590  0.79812199    -0.01300
Br1306     Br  0.45386215  0.82956783  0.90222072    -0.01300
C1307       C  0.41862102  0.81683797  0.61847589    -0.02400
C1308       C  0.39984116  0.81271062  0.58324649     0.07300
C1309       C  0.37655129  0.79690719  0.59281700    -0.02500
C1310       C  0.37413864  0.78449007  0.63477702    -0.02500
C1311       C  0.39694912  0.78265390  0.66263923     0.07400
C1312       C  0.41982504  0.79831383  0.65312310    -0.02700
Br1313     Br  0.45242648  0.79635966  0.68806869    -0.01300
Br1314     Br  0.43539392  0.85176780  0.63035960    -0.01300
Br1315     Br  0.33873297  0.77524685  0.65725049    -0.01300
Br1316     Br  0.34659251  0.79352520  0.55212570    -0.01300
C1317       C  0.30071129  0.88218517  0.59661039    -0.02400
C1318       C  0.31342524  0.90678377  0.58439752     0.07300
C1319       C  0.31359866  0.92841923  0.61597408    -0.02500
C1320       C  0.30059322  0.92581343  0.65815807    -0.02500
C1321       C  0.28507226  0.90241767  0.66793687     0.07400
C1322       C  0.28675062  0.88001418  0.63797212    -0.02700
Br1323     Br  0.27201302  0.84543107  0.65529586    -0.01300
Br1324     Br  0.30269410  0.85100148  0.55695433    -0.01300
Br1325     Br  0.30395039  0.95482343  0.70203820    -0.01300
Br1326     Br  0.32914459  0.96286266  0.60040375    -0.01300
C1327       C  0.29900128  0.88376378  0.84181175    -0.02400
C1328       C  0.27742250  0.90225098  0.83426073     0.07300
C1329       C  0.27293980  0.92385006  0.86493239    -0.02500
C1330       C  0.28612007  0.92369442  0.90646156    -0.02500
C1331       C  0.30864095  0.90573607  0.91318618     0.07400
C1332       C  0.31709151  0.88894464  0.87644224    -0.02700
Br1333     Br  0.35502187  0.88352769  0.85998924    -0.01300
Br1334     Br  0.30614301  0.85268581  0.80290201    -0.01300
Br1335     Br  0.27494317  0.95085419  0.95058722    -0.01300
Br1336     Br  0.25381391  0.95644077  0.84698196    -0.01300
C1337       C  0.21741247  0.87759236  0.86047859    -0.02400
C1338       C  0.21585540  0.89932126  0.82992757     0.07300
C1339       C  0.19716901  0.92087036  0.83929259    -0.02500
C1340       C  0.18343212  0.92254299  0.88116180    -0.02500
C1341       C  0.18676663  0.90192543  0.91368534     0.07400
C1342       C  0.20345400  0.87900566  0.90211930    -0.02700
Br1343     Br  0.20740258  0.84887311  0.94274715    -0.01300
Br1344     Br  0.23674658  0.84461972  0.84342044    -0.01300
Br1345     Br  0.16242124  0.95486760  0.89455564    -0.01300
Br1346     Br  0.19079852  0.94897797  0.79532178    -0.01300
C1347       C  0.21206297  0.92046123  0.59226570    -0.02400
C1348       C  0.19135700  0.90087451  0.58496111     0.07300
C1349       C  0.18551176  0.88273774  0.62065440    -0.02500
C1350       C  0.20455610  0.87893822  0.65455322    -0.02500
C1351       C  0.22359475  0.89944866  0.66323485     0.07400
C1352       C  0.22525732  0.92158053  0.63373473    -0.02700
Br1353     Br  0.23999263  0.95581227  0.65350523    -0.01300
Br1354     Br  0.22060876  0.94846942  0.54919873    -0.01300
Br1355     Br  0.20192599  0.84696805  0.69168914    -0.01300
Br1356     Br  0.14882324  0.87347353  0.63830835    -0.01300
C1357       C  0.12795122  0.79336332  0.64543391    -0.02400
C1358       C  0.10516405  0.79148280  0.67394328     0.07300
C1359       C  0.08194534  0.80748270  0.66410191    -0.02500
C1360       C  0.07964983  0.82058892  0.62218659    -0.02500
C1361       C  0.10105199  0.81882514  0.59024394     0.06600
C1362       C  0.12572817  0.80595063  0.60323167    -0.02700
Br1363     Br  0.15689407  0.80517868  0.56366705    -0.01300
Br1364     Br  0.16298148  0.78184929  0.66691623    -0.01300
Br1365     Br  0.04604165  0.83873604  0.60806468    -0.01300
Br1366     Br  0.05349572  0.81207053  0.70857276    -0.01300
C1367       C  0.12515255  0.79531381  0.90393299    -0.02400
C1368       C  0.09943640  0.80063700  0.92368221     0.07300
C1369       C  0.07656930  0.78787065  0.90455461    -0.02500
C1370       C  0.07811861  0.77770365  0.86070428    -0.02500
C1371       C  0.10338501  0.77580574  0.83853100     0.07400
C1372       C  0.12697622  0.78484749  0.86018050    -0.02700
Br1373     Br  0.16118011  0.78669151  0.82851634    -0.01300
Br1374     Br  0.15777555  0.79778464  0.93885634    -0.01300
Br1375     Br  0.04489993  0.77113303  0.82888654    -0.01300
Br1376     Br  0.04468166  0.77954003  0.93994466    -0.01300
O1377       O  0.52603817  0.43625717  0.03804403    -0.73500
O1378       O  0.97061474  0.37858627  0.03195820    -0.74500
O1379       O  0.52986782  0.38013515  0.03574154    -0.63100
O1380       O  0.96951753  0.43566103  0.03468952    -0.71500
O1381       O  0.97168891  0.43749960  0.46039593    -0.71100
O1382       O  0.52790845  0.37810801  0.46171977    -0.62300
O1383       O  0.96837987  0.38112056  0.45799856    -0.74800
O1384       O  0.52826086  0.43499716  0.46361007    -0.73600
Cu1385     Cu  0.99884204  0.40733093  0.03773251     1.04600
Cu1386     Cu  0.49917462  0.40766880  0.45825767     1.04300
C1387       C  0.53589794  0.44457718  0.00124739     0.92700
C1388       C  0.95907543  0.37239416  0.49501743     0.91800
C1389       C  0.53953034  0.37157029  0.99842072     0.84000
C1390       C  0.96195020  0.44599361  0.49767521     0.90200
O1391       O  0.93376568  0.47771381  0.03549987    -0.73500
O1392       O  0.87527162  0.03452875  0.03534567    -0.74500
O1393       O  0.87798922  0.47494324  0.03531909    -0.63100
O1394       O  0.93219004  0.03509543  0.03590223    -0.71500
O1395       O  0.93405005  0.03429318  0.46150737    -0.71100
O1396       O  0.87624317  0.47841488  0.46144883    -0.62300
O1397       O  0.87773007  0.03808800  0.46148599    -0.74800
O1398       O  0.93276552  0.47694570  0.46109043    -0.73600
Cu1399     Cu  0.90454402  0.00570112  0.03815041     1.04600
Cu1400     Cu  0.90496521  0.00691636  0.45874059     1.04300
C1401       C  0.94191976  0.46791636  0.99806339     0.92700
C1402       C  0.86884163  0.04684926  0.49924167     0.91800
C1403       C  0.87003099  0.46596713  0.99753047     0.84000
C1404       C  0.94204786  0.04361485  0.49901551     0.90200
O1405       O  0.52838074  0.13051524  0.03798862    -0.73500
O1406       O  0.97157315  0.07290924  0.03718024    -0.74500
O1407       O  0.52842810  0.07318240  0.03890959    -0.63100
O1408       O  0.96851655  0.12916754  0.03586717    -0.71500
O1409       O  0.97342844  0.12984027  0.46199433    -0.71100
O1410       O  0.52867248  0.07089362  0.46448699    -0.62300
O1411       O  0.97213808  0.07330844  0.46274530    -0.74800
O1412       O  0.53288610  0.12696699  0.46430386    -0.73600
Cu1413     Cu  0.49928972  0.10179684  0.04019501     1.04600
Cu1414     Cu  0.00182670  0.10055724  0.46080873     1.04300
C1415       C  0.54127198  0.13604060  0.50184616     0.92700
C1416       C  0.96286003  0.06425402  0.99967254     0.91800
C1417       C  0.53707992  0.06262703  0.50218726     0.84000
C1418       C  0.96009710  0.13647172  0.99744421     0.90200
O1419       O  0.62191516  0.47351280  0.03880465    -0.73500
O1420       O  0.56448652  0.03119791  0.04026423    -0.74500
O1421       O  0.56543886  0.47396972  0.03920785    -0.63100
O1422       O  0.62017090  0.03367766  0.03970630    -0.71500
O1423       O  0.62222058  0.02956031  0.46572962    -0.71100
O1424       O  0.56456635  0.47461782  0.46474618    -0.62300
O1425       O  0.56629920  0.03141942  0.46581156    -0.74800
O1426       O  0.61998995  0.46976322  0.46497244    -0.73600
Cu1427     Cu  0.59329521  0.00298923  0.04222436     1.04600
Cu1428     Cu  0.59357812  0.00137337  0.46273829     1.04300
C1429       C  0.62792896  0.46060809  0.50250722     0.92700
C1430       C  0.55685505  0.04072025  0.00287041     0.91800
C1431       C  0.55621820  0.46537553  0.50190469     0.84000
C1432       C  0.62785920  0.04256979  0.00172148     0.90200
C1433       C  0.59616673  0.32202345  0.46110348     0.85900
C1434       C  0.56840704  0.33651062  0.46220805    -0.54300
C1435       C  0.56461132  0.35440157  0.99660635     0.08900
C1436       C  0.59027478  0.35742348  0.02653512     0.19800
C1437       C  0.61588939  0.34630603  0.45837031    -0.55000
C1438       C  0.61333875  0.36473426  0.99252754     0.09000
C1439       C  0.59992086  0.30985464  0.00776797    -0.54600
C1440       C  0.59719979  0.32799114  0.04248009     0.09500
H1441       H  0.55340625  0.33432136  0.43602641     0.14000
H1442       H  0.58790654  0.37251204  0.05425518    -0.00200
H1443       H  0.63125478  0.34846312  0.43244258     0.14300
H1444       H  0.60444450  0.28836875  0.01287580     0.14100
C1445       C  0.67387746  0.40272596  0.04269169     0.85900
C1446       C  0.65864875  0.42987939  0.04234315    -0.54300
C1447       C  0.64363020  0.43463025  0.50537264     0.08900
C1448       C  0.64357200  0.40996623  0.47187850     0.19800
C1449       C  0.65196808  0.38111716  0.03620478    -0.55000
C1450       C  0.63511796  0.38518212  0.50120382     0.09000
C1451       C  0.68975549  0.40137959  0.49801775    -0.54600
C1452       C  0.67428856  0.40462814  0.46028727     0.09500
H1453       H  0.66006217  0.44458696  0.06965629     0.14000
H1454       H  0.63039540  0.41288953  0.44227781    -0.00200
H1455       H  0.65119430  0.36230427  0.05430950     0.14300
H1456       H  0.71157756  0.39782239  0.49649451     0.14100
C1457       C  0.73816490  0.39982310  0.20650921     0.01700
C1458       C  0.76691978  0.40152420  0.20897316     0.01700
C1459       C  0.77859912  0.40246959  0.25150297    -0.18800
C1460       C  0.76280946  0.40134349  0.29112950     0.01700
C1461       C  0.73402884  0.39982360  0.28876361     0.01700
C1462       C  0.72232469  0.39919733  0.24616739    -0.18800
H1463       H  0.70038399  0.39826166  0.24376240     0.03700
H1464       H  0.80050244  0.40400151  0.25388226     0.03700
C1465       C  0.82551447  0.40817027  0.45578924     0.85900
C1466       C  0.83932646  0.43572414  0.45722410    -0.54300
C1467       C  0.85441613  0.44045950  0.99414560     0.08900
C1468       C  0.85554457  0.41584508  0.02665493     0.19800
C1469       C  0.84835257  0.38698827  0.46136376    -0.55000
C1470       C  0.86494670  0.39130603  0.99652537     0.09000
C1471       C  0.80975067  0.40613080  0.00042014    -0.54600
C1472       C  0.82521386  0.40995759  0.03797628     0.09500
H1473       H  0.83726064  0.45048324  0.43048904     0.14000
H1474       H  0.86853017  0.41897653  0.05645020    -0.00200
H1475       H  0.84968758  0.36809667  0.44260559     0.14300
H1476       H  0.78825780  0.40142415  0.00218777     0.14100
C1477       C  0.90261309  0.32875224  0.04015546     0.85900
C1478       C  0.93160090  0.33819732  0.03119177    -0.54300
C1479       C  0.93428993  0.35571601  0.49703015     0.08900
C1480       C  0.90761381  0.35983823  0.47027246     0.19800
C1481       C  0.88461612  0.35449450  0.04210015    -0.55000
C1482       C  0.88664734  0.37069565  0.50579781     0.09000
C1483       C  0.89593920  0.31421737  0.49565825    -0.54600
C1484       C  0.89843465  0.33026102  0.45855221     0.09500
H1485       H  0.94913556  0.33161538  0.05027761     0.14000
H1486       H  0.90975640  0.37328329  0.44078918    -0.00200
H1487       H  0.86975872  0.35835351  0.06859173     0.14300
H1488       H  0.89160026  0.29261843  0.49318743     0.14100
C1489       C  0.67526925  0.09815063  0.46200173     0.85900
C1490       C  0.65871834  0.07222003  0.46129457    -0.54300
C1491       C  0.64290653  0.06832969  0.99778709     0.08900
C1492       C  0.64270918  0.09284860  0.03108114     0.19800
C1493       C  0.65465261  0.12147664  0.46807046    -0.55000
C1494       C  0.63628992  0.11855601  0.00127920     0.09000
C1495       C  0.69010865  0.09790344  0.00755188    -0.54600
C1496       C  0.67336104  0.09501053  0.04452564     0.09500
H1497       H  0.66029892  0.05733388  0.43416828     0.14000
H1498       H  0.62845422  0.09007486  0.05950221    -0.00200
H1499       H  0.65581346  0.14050677  0.45046822     0.14300
H1500       H  0.71203472  0.09948118  0.01023355     0.14100
C1501       C  0.59817517  0.18475983  0.03730544     0.85900
C1502       C  0.57041899  0.17058727  0.03808269    -0.54300
C1503       C  0.56653400  0.15232417  0.50422562     0.08900
C1504       C  0.59198396  0.14848852  0.47349065     0.19800
C1505       C  0.61829695  0.16047949  0.03905394    -0.55000
C1506       C  0.61514479  0.14091336  0.50727308     0.09000
C1507       C  0.60120873  0.19633721  0.49027935    -0.54600
C1508       C  0.59826802  0.17786947  0.45634209     0.09500
H1509       H  0.55525733  0.17407648  0.06416329     0.14000
H1510       H  0.58948513  0.13321791  0.44623198    -0.00200
H1511       H  0.63485372  0.15930231  0.06221916     0.14300
H1512       H  0.60525920  0.21773103  0.48428225     0.14100
C1513       C  0.60311514  0.23508430  0.28630125     0.01700
C1514       C  0.60492445  0.26372495  0.29316606     0.01700
C1515       C  0.60615032  0.28154180  0.25652001    -0.18800
C1516       C  0.60510404  0.27174724  0.21238329     0.01700
C1517       C  0.60322499  0.24312212  0.20536176     0.01700
C1518       C  0.60236619  0.22524436  0.24211003    -0.18800
H1519       H  0.60117452  0.20346495  0.23615178     0.03700
H1520       H  0.60733373  0.30331999  0.26252948     0.03700
C1521       C  0.76573756  0.10521557  0.29340286     0.01700
C1522       C  0.73770309  0.09950128  0.29542138     0.01700
C1523       C  0.72261471  0.09588393  0.25584332    -0.18800
C1524       C  0.73444329  0.09880665  0.21319787     0.01700
C1525       C  0.76262907  0.10520441  0.21134167     0.01700
C1526       C  0.77748693  0.10896536  0.25130207    -0.18800
H1527       H  0.79884936  0.11407130  0.24951754     0.03700
H1528       H  0.70121129  0.09109769  0.25847137     0.03700
C1529       C  0.82426318  0.10495586  0.04513753     0.85900
C1530       C  0.83515860  0.07572778  0.03850594    -0.54300
C1531       C  0.85194423  0.07205506  0.50277030     0.08900
C1532       C  0.85439809  0.09799345  0.47358273     0.19800
C1533       C  0.84914895  0.12324702  0.04376283    -0.55000
C1534       C  0.86486016  0.12027814  0.50671262     0.09000
C1535       C  0.80883006  0.10966100  0.50110254    -0.54600
C1536       C  0.82436956  0.10618346  0.46329059     0.09500
H1537       H  0.83066452  0.05921453  0.06127869     0.14000
H1538       H  0.86738099  0.09516800  0.44329512    -0.00200
H1539       H  0.85344601  0.13807360  0.06975069     0.14300
H1540       H  0.78701584  0.11284522  0.49933102     0.14100
C1541       C  0.90159165  0.17989794  0.45257771     0.85900
C1542       C  0.92924614  0.16555606  0.45440067    -0.54300
C1543       C  0.93412314  0.15155445  0.99242105     0.08900
C1544       C  0.90945451  0.15135642  0.02500094     0.19800
C1545       C  0.88079845  0.15737800  0.45970217    -0.55000
C1546       C  0.88528077  0.14141589  0.99563670     0.09000
C1547       C  0.89910613  0.19675383  0.99631574    -0.54600
C1548       C  0.90336613  0.18206126  0.03438204     0.09500
H1549       H  0.94409366  0.16676820  0.42736911     0.14000
H1550       H  0.91274223  0.13915591  0.05565403    -0.00200
H1551       H  0.86166093  0.15629083  0.44252924     0.14300
H1552       H  0.89447880  0.21846223  0.99710292     0.14100
C1553       C  0.89845407  0.23936841  0.20662888     0.01700
C1554       C  0.89567986  0.26806412  0.20513687     0.01700
C1555       C  0.89364313  0.28378168  0.24478918    -0.18800
C1556       C  0.89482370  0.27169047  0.28693122     0.01700
C1557       C  0.89737180  0.24281339  0.28848955     0.01700
C1558       C  0.89968991  0.22720474  0.24859973    -0.18800
H1559       H  0.90223814  0.20525132  0.25033826     0.03700
H1560       H  0.89174372  0.30578256  0.24267819     0.03700
C1561       C  0.92549640  0.21672514  0.14338901    -0.02400
C1562       C  0.90025581  0.22201230  0.16483978     0.07300
C1563       C  0.87652574  0.21143595  0.14526911    -0.02500
C1564       C  0.87737533  0.20013377  0.10170196    -0.02500
C1565       C  0.90247854  0.19511926  0.07990227     0.07400
C1566       C  0.92661075  0.20334170  0.10119521    -0.02700
Br1567     Br  0.96112221  0.19809846  0.07117301    -0.01300
Br1568     Br  0.95871635  0.22569927  0.17346674    -0.01300
Br1569     Br  0.84383923  0.19415383  0.07053716    -0.01300
Br1570     Br  0.84344745  0.20902128  0.17977093    -0.01300
C1571       C  0.91931868  0.23082534  0.36089269    -0.02400
C1572       C  0.89760518  0.22794572  0.33109597     0.07300
C1573       C  0.87826133  0.20762137  0.33875868    -0.02500
C1574       C  0.88221558  0.18924505  0.37355600    -0.02500
C1575       C  0.89965574  0.19640653  0.40958339     0.07400
C1576       C  0.91853594  0.21776097  0.40232546    -0.02700
Br1577     Br  0.94599725  0.22765701  0.44561838    -0.01300
Br1578     Br  0.95271143  0.24726976  0.34155761    -0.01300
Br1579     Br  0.87248934  0.15202887  0.35876832    -0.01300
Br1580     Br  0.84764501  0.20266358  0.29946666    -0.01300
C1581       C  0.78624446  0.13089251  0.35915134    -0.02400
C1582       C  0.78317517  0.10639857  0.33463808     0.07300
C1583       C  0.79645282  0.08265552  0.35019805    -0.02500
C1584       C  0.80906056  0.08239202  0.39240368    -0.02500
C1585       C  0.81172825  0.10668989  0.41759881     0.07400
C1586       C  0.80034213  0.13106121  0.40036677    -0.02700
Br1587     Br  0.80342391  0.16476026  0.43355395    -0.01300
Br1588     Br  0.77274756  0.16457746  0.33478834    -0.01300
Br1589     Br  0.81909667  0.04768148  0.41731271    -0.01300
Br1590     Br  0.79942375  0.05058313  0.31287919    -0.01300
C1591       C  0.77226617  0.12702546  0.13682564    -0.02400
C1592       C  0.77811218  0.10682604  0.16881742     0.07300
C1593       C  0.80174238  0.09054886  0.16329650    -0.02500
C1594       C  0.81889524  0.09470395  0.12707486    -0.02500
C1595       C  0.80901870  0.10874515  0.08933552     0.07400
C1596       C  0.78697472  0.12737382  0.09608812    -0.02700
Br1597     Br  0.77959179  0.15661264  0.05489132    -0.01300
Br1598     Br  0.74664764  0.15600951  0.15078244    -0.01300
Br1599     Br  0.85696996  0.08441382  0.13335432    -0.01300
Br1600     Br  0.81096147  0.06119036  0.20295113    -0.01300
C1601       C  0.62521223  0.19769826  0.39189336    -0.02400
C1602       C  0.60041618  0.18716542  0.40835075     0.07300
C1603       C  0.57717974  0.18921128  0.38077890    -0.02500
C1604       C  0.57839428  0.20288402  0.33914467    -0.02500
C1605       C  0.60264136  0.21546804  0.32504299     0.07400
C1606       C  0.62646269  0.21031876  0.34959321    -0.02700
Br1607     Br  0.66118257  0.21758282  0.32255384    -0.01300
Br1608     Br  0.65753219  0.19650518  0.42800855    -0.01300
Br1609     Br  0.54709884  0.20322763  0.30058913    -0.01300
Br1610     Br  0.54278050  0.17594935  0.40144287    -0.01300
C1611       C  0.62636480  0.20916531  0.09729843    -0.02400
C1612       C  0.60153634  0.20644653  0.07421907     0.07300
C1613       C  0.57890832  0.22200948  0.08995241    -0.02500
C1614       C  0.57903923  0.23318414  0.13343639    -0.02500
C1615       C  0.60266462  0.23123592  0.15968087     0.07400
C1616       C  0.62633213  0.21898307  0.14145024    -0.02700
Br1617     Br  0.65811412  0.21296692  0.17771272    -0.01300
Br1618     Br  0.66078042  0.20626562  0.06586111    -0.01300
Br1619     Br  0.54567844  0.24762594  0.15874579    -0.01300
Br1620     Br  0.54891644  0.23070509  0.05083843    -0.01300
C1621       C  0.67702016  0.10969539  0.12731336    -0.02400
C1622       C  0.68509303  0.09231946  0.09149157     0.07300
C1623       C  0.70612566  0.07310465  0.10034541    -0.02500
C1624       C  0.72134496  0.07436638  0.14051897    -0.02500
C1625       C  0.71673272  0.09563167  0.17200017     0.07400
C1626       C  0.69349881  0.11255814  0.16567696    -0.02700
Br1627     Br  0.68404858  0.14084027  0.20830538    -0.01300
Br1628     Br  0.64159545  0.12636992  0.12895131    -0.01300
Br1629     Br  0.74626849  0.04512190  0.15458082    -0.01300
Br1630     Br  0.71101205  0.04211477  0.06123063    -0.01300
C1631       C  0.71188582  0.07796132  0.40893117    -0.02400
C1632       C  0.69262888  0.09914171  0.41912750     0.07300
C1633       C  0.68664682  0.11781649  0.38422507    -0.02500
C1634       C  0.70535992  0.12102873  0.34962532    -0.02500
C1635       C  0.72303776  0.09935698  0.33851672     0.07400
C1636       C  0.72381694  0.07644318  0.36614761    -0.02700
Br1637     Br  0.73505136  0.04152056  0.34208116    -0.01300
Br1638     Br  0.71990495  0.04855745  0.44907664    -0.01300
Br1639     Br  0.70367663  0.15379838  0.31504389    -0.01300
Br1640     Br  0.64973176  0.12721151  0.36709679    -0.01300
C1641       C  0.87183819  0.30576026  0.39771070    -0.02400
C1642       C  0.89608104  0.31839433  0.41201838     0.07300
C1643       C  0.91875227  0.31764158  0.38276397    -0.02500
C1644       C  0.91698931  0.30539036  0.34006726    -0.02500
C1645       C  0.89423082  0.28957610  0.32839472     0.07400
C1646       C  0.87119022  0.29082534  0.35684196    -0.02700
Br1647     Br  0.83813295  0.27355583  0.33831235    -0.01300
Br1648     Br  0.83918198  0.30929483  0.43338163    -0.01300
Br1649     Br  0.94619203  0.31105549  0.29812217    -0.01300
Br1650     Br  0.95386222  0.32956801  0.40222079    -0.01300
C1651       C  0.91862059  0.31683810  0.11847608    -0.02400
C1652       C  0.89984058  0.31271075  0.08324686     0.07300
C1653       C  0.87655074  0.29690736  0.09281772    -0.02500
C1654       C  0.87413831  0.28449019  0.13477774    -0.02500
C1655       C  0.89694897  0.28265387  0.16263953     0.07400
C1656       C  0.91982479  0.29831391  0.15312324    -0.02700
Br1657     Br  0.95242628  0.29635986  0.18806873    -0.01300
Br1658     Br  0.93539351  0.35176794  0.13035965    -0.01300
Br1659     Br  0.83873278  0.27524704  0.15725189    -0.01300
Br1660     Br  0.84659184  0.29352538  0.05212677    -0.01300
C1661       C  0.80071091  0.38218552  0.09661060    -0.02400
C1662       C  0.81342495  0.40678413  0.08439797     0.07300
C1663       C  0.81359852  0.42841946  0.11597476    -0.02500
C1664       C  0.80059297  0.42581355  0.15815867    -0.02500
C1665       C  0.78507201  0.40241775  0.16793734     0.07400
C1666       C  0.78675033  0.38001434  0.13797241    -0.02700
Br1667     Br  0.77201284  0.34543111  0.15529594    -0.01300
Br1668     Br  0.80269350  0.35100203  0.05695410    -0.01300
Br1669     Br  0.80395002  0.45482344  0.20203898    -0.01300
Br1670     Br  0.82914495  0.46286278  0.10040493    -0.01300
C1671       C  0.79900128  0.38376368  0.34181224    -0.02400
C1672       C  0.77742258  0.40225098  0.33426127     0.07300
C1673       C  0.77293996  0.42385001  0.36493301    -0.02500
C1674       C  0.78612020  0.42369426  0.40646218    -0.02500
C1675       C  0.80864106  0.40573586  0.41318671     0.07400
C1676       C  0.81709156  0.38894441  0.37644272    -0.02700
Br1677     Br  0.85502188  0.38352707  0.35998972    -0.01300
Br1678     Br  0.80614283  0.35268574  0.30290239    -0.01300
Br1679     Br  0.77494320  0.45085393  0.45058800    -0.01300
Br1680     Br  0.75381411  0.45644076  0.34698272    -0.01300
C1681       C  0.71741269  0.37759287  0.36047985    -0.02400
C1682       C  0.71585544  0.39932153  0.32992842     0.07300
C1683       C  0.69716903  0.42087068  0.33929314    -0.02500
C1684       C  0.68343210  0.42254350  0.38116232    -0.02500
C1685       C  0.68676670  0.40192614  0.41368619     0.07400
C1686       C  0.70345423  0.37900641  0.40212054    -0.02700
Br1687     Br  0.70740279  0.34887404  0.44274869    -0.01300
Br1688     Br  0.73674694  0.34462016  0.34342226    -0.01300
Br1689     Br  0.66242104  0.45486812  0.39455551    -0.01300
Br1690     Br  0.69079855  0.44897811  0.29532196    -0.01300
C1691       C  0.71206307  0.42046093  0.09226615    -0.02400
C1692       C  0.69135702  0.40087433  0.08496155     0.07300
C1693       C  0.68551160  0.38273771  0.12065498    -0.02500
C1694       C  0.70455582  0.37893818  0.15455402    -0.02500
C1695       C  0.72359449  0.39944860  0.16323567     0.07400
C1696       C  0.72525717  0.42158040  0.13373540    -0.02700
Br1697     Br  0.73999224  0.45581224  0.15350598    -0.01300
Br1698     Br  0.72060921  0.44846881  0.04919888    -0.01300
Br1699     Br  0.70192542  0.34696809  0.19169020    -0.01300
Br1700     Br  0.64882300  0.37347389  0.13830883    -0.01300
C1701       C  0.62795093  0.29336371  0.14543424    -0.02400
C1702       C  0.60516374  0.29148317  0.17394355     0.07300
C1703       C  0.58194505  0.30748305  0.16410217    -0.02500
C1704       C  0.57964950  0.32058911  0.12218673    -0.02500
C1705       C  0.60105169  0.31882536  0.09024415     0.06600
C1706       C  0.62572791  0.30595099  0.10323198    -0.02700
Br1707     Br  0.65689371  0.30517885  0.06366721    -0.01300
Br1708     Br  0.66298113  0.28184967  0.16691667    -0.01300
Br1709     Br  0.54604122  0.33873584  0.10806444    -0.01300
Br1710     Br  0.55349553  0.31207112  0.20857317    -0.01300
C1711       C  0.62515267  0.29531424  0.40393282    -0.02400
C1712       C  0.59943657  0.30063730  0.42368234     0.07300
C1713       C  0.57656944  0.28787082  0.40455505    -0.02500
C1714       C  0.57811860  0.27770380  0.36070472    -0.02500
C1715       C  0.60338492  0.27580597  0.33853117     0.07400
C1716       C  0.62697619  0.28484785  0.36018036    -0.02700
Br1717     Br  0.66117995  0.28669189  0.32851578    -0.01300
Br1718     Br  0.65777580  0.29778540  0.43885576    -0.01300
Br1719     Br  0.54489978  0.27113303  0.32888736    -0.01300
Br1720     Br  0.54468186  0.27954039  0.43994543    -0.01300
O1721       O  0.52603825  0.43625728  0.53804500    -0.73500
O1722       O  0.97061498  0.37858599  0.53195818    -0.74500
O1723       O  0.52986804  0.38013526  0.53574204    -0.63100
O1724       O  0.96951768  0.43566076  0.53468949    -0.71500
O1725       O  0.97168879  0.43749990  0.96039595    -0.71100
O1726       O  0.52790823  0.37810768  0.96171928    -0.62300
O1727       O  0.96837962  0.38112092  0.95799858    -0.74800
O1728       O  0.52826086  0.43499684  0.96360913    -0.73600
Cu1729     Cu  0.99884221  0.40733068  0.53773249     1.04600
Cu1730     Cu  0.49917447  0.40766857  0.95825694     1.04300
C1731       C  0.53589794  0.44457741  0.50124837     0.92700
C1732       C  0.95907516  0.37239449  0.99501744     0.91800
C1733       C  0.53953053  0.37157049  0.49842119     0.84000
C1734       C  0.96195003  0.44599384  0.99767532     0.90200
O1735       O  0.93376591  0.47771362  0.53549975    -0.73500
O1736       O  0.87527180  0.03452858  0.53534580    -0.74500
O1737       O  0.87798945  0.47494293  0.53531882    -0.63100
O1738       O  0.93219021  0.03509532  0.53590240    -0.71500
O1739       O  0.93404993  0.03429318  0.96150718    -0.71100
O1740       O  0.87624290  0.47841512  0.96144909    -0.62300
O1741       O  0.87773001  0.03808816  0.96148586    -0.74800
O1742       O  0.93276524  0.47694583  0.96109055    -0.73600
Cu1743     Cu  0.90454424  0.00570095  0.53815042     1.04600
Cu1744     Cu  0.90496504  0.00691648  0.95874053     1.04300
C1745       C  0.94192002  0.46791619  0.49806335     0.92700
C1746       C  0.86884155  0.04684946  0.99924151     0.91800
C1747       C  0.87003125  0.46596684  0.49753017     0.84000
C1748       C  0.94204777  0.04361485  0.99901527     0.90200
O1749       O  0.52838048  0.13051549  0.53798894    -0.73500
O1750       O  0.97157309  0.07290937  0.53718058    -0.74500
O1751       O  0.52842796  0.07318263  0.53891054    -0.63100
O1752       O  0.96851633  0.12916770  0.53586756    -0.71500
O1753       O  0.97342860  0.12983993  0.96199395    -0.71100
O1754       O  0.52867276  0.07089362  0.96448602    -0.62300
O1755       O  0.97213825  0.07330813  0.96274499    -0.74800
O1756       O  0.53288633  0.12696699  0.96430350    -0.73600
Cu1757     Cu  0.49928951  0.10179705  0.54019564     1.04600
Cu1758     Cu  0.00182685  0.10055694  0.96080846     1.04300
C1759       C  0.54127222  0.13604049  0.00184587     0.92700
C1760       C  0.96285999  0.06425417  0.49967281     0.91800
C1761       C  0.53708013  0.06262691  0.00218627     0.84000
C1762       C  0.96009689  0.13647195  0.49744463     0.90200
O1763       O  0.62191508  0.47351295  0.53880546    -0.73500
O1764       O  0.56448648  0.03119817  0.54026517    -0.74500
O1765       O  0.56543887  0.47396988  0.53920882    -0.63100
O1766       O  0.62017082  0.03367788  0.53970684    -0.71500
O1767       O  0.62222079  0.02956016  0.96572909    -0.71100
O1768       O  0.56456648  0.47461762  0.96474525    -0.62300
O1769       O  0.56629942  0.03141926  0.96581063    -0.74800
O1770       O  0.61999011  0.46976301  0.96497169    -0.73600
Cu1771     Cu  0.59329515  0.00298947  0.54222523     1.04600
Cu1772     Cu  0.59357830  0.00137317  0.96273746     1.04300
C1773       C  0.62792912  0.46060791  0.00250648     0.92700
C1774       C  0.55685488  0.04072041  0.50287138     0.91800
C1775       C  0.55621826  0.46537532  0.00190372     0.84000
C1776       C  0.62785908  0.04256995  0.50172196     0.90200
C1777       C  0.59616673  0.32202326  0.96110342     0.85900
C1778       C  0.56840697  0.33651037  0.96220781    -0.54300
C1779       C  0.56461144  0.35440172  0.49660668     0.08900
C1780       C  0.59027494  0.35742355  0.52653538     0.19800
C1781       C  0.61588934  0.34630585  0.95837023    -0.55000
C1782       C  0.61333883  0.36473438  0.49252774     0.09000
C1783       C  0.59992091  0.30985473  0.50776797    -0.54600
C1784       C  0.59719995  0.32799118  0.54248020     0.09500
H1785       H  0.55340624  0.33432100  0.93602629     0.14000
H1786       H  0.58790677  0.37251207  0.55425551    -0.00200
H1787       H  0.63125484  0.34846290  0.93244250     0.14300
H1788       H  0.60444446  0.28836883  0.51287570     0.14100
C1789       C  0.67387742  0.40272617  0.54269198     0.85900
C1790       C  0.65864853  0.42987949  0.54234375    -0.54300
C1791       C  0.64363039  0.43463007  0.00537203     0.08900
C1792       C  0.64357211  0.40996592  0.97187810     0.19800
C1793       C  0.65196817  0.38111726  0.53620486    -0.55000
C1794       C  0.63511794  0.38518194  0.00120364     0.09000
C1795       C  0.68975555  0.40137912  0.99801747    -0.54600
C1796       C  0.67428865  0.40462767  0.96028694     0.09500
H1797       H  0.66006184  0.44458696  0.56965708     0.14000
H1798       H  0.63039555  0.41288914  0.94227738    -0.00200
H1799       H  0.65119459  0.36230424  0.55430916     0.14300
H1800       H  0.71157759  0.39782185  0.99649429     0.14100
C1801       C  0.73816518  0.39982340  0.70650902     0.01700
C1802       C  0.76692004  0.40152455  0.70897307     0.01700
C1803       C  0.77859934  0.40246995  0.75150291    -0.18800
C1804       C  0.76280962  0.40134378  0.79112936     0.01700
C1805       C  0.73402901  0.39982383  0.78876335     0.01700
C1806       C  0.72232492  0.39919762  0.74616711    -0.18800
H1807       H  0.70038422  0.39826191  0.74376201     0.03700
H1808       H  0.80050265  0.40400193  0.75388229     0.03700
C1809       C  0.82551428  0.40817058  0.95578932     0.85900
C1810       C  0.83932619  0.43572448  0.95722429    -0.54300
C1811       C  0.85441644  0.44045920  0.49414530     0.08900
C1812       C  0.85554489  0.41584484  0.52665472     0.19800
C1813       C  0.84835242  0.38698862  0.96136380    -0.55000
C1814       C  0.86494694  0.39130575  0.49652523     0.09000
C1815       C  0.80975094  0.40613057  0.50042017    -0.54600
C1816       C  0.82521419  0.40995742  0.53797623     0.09500
H1817       H  0.83726039  0.45048352  0.93048931     0.14000
H1818       H  0.86853055  0.41897634  0.55644991    -0.00200
H1819       H  0.84968760  0.36809708  0.94260533     0.14300
H1820       H  0.78825806  0.40142386  0.50218795     0.14100
C1821       C  0.90261326  0.32875192  0.54015529     0.85900
C1822       C  0.93160110  0.33819703  0.53119184    -0.54300
C1823       C  0.93428967  0.35571630  0.99703007     0.08900
C1824       C  0.90761348  0.35983850  0.97027251     0.19800
C1825       C  0.88461626  0.35449417  0.54209996    -0.55000
C1826       C  0.88664709  0.37069595  0.00579797     0.09000
C1827       C  0.89593889  0.31421767  0.99565847    -0.54600
C1828       C  0.89843423  0.33026129  0.95855238     0.09500
H1829       H  0.94913572  0.33161507  0.55027779     0.14000
H1830       H  0.90975599  0.37328354  0.94078919    -0.00200
H1831       H  0.86975888  0.35835317  0.56859138     0.14300
H1832       H  0.89159991  0.29261874  0.99318772     0.14100
C1833       C  0.67526940  0.09815061  0.96200192     0.85900
C1834       C  0.65871840  0.07222007  0.96129433    -0.54300
C1835       C  0.64290650  0.06832978  0.49778739     0.08900
C1836       C  0.64270910  0.09284885  0.53108111     0.19800
C1837       C  0.65465289  0.12147667  0.96807095    -0.55000
C1838       C  0.63628973  0.11855610  0.50127888     0.09000
C1839       C  0.69010851  0.09790371  0.50755170    -0.54600
C1840       C  0.67336094  0.09501093  0.54452554     0.09500
H1841       H  0.66029896  0.05733406  0.93416790     0.14000
H1842       H  0.62845419  0.09007523  0.55950225    -0.00200
H1843       H  0.65581392  0.14050689  0.95046914     0.14300
H1844       H  0.71203468  0.09948136  0.51023327     0.14100
C1845       C  0.59817502  0.18475989  0.53730540     0.85900
C1846       C  0.57041883  0.17058733  0.53808285    -0.54300
C1847       C  0.56653421  0.15232412  0.00422540     0.08900
C1848       C  0.59198426  0.14848851  0.97349064     0.19800
C1849       C  0.61829682  0.16047956  0.53905368    -0.55000
C1850       C  0.61514498  0.14091329  0.00727324     0.09000
C1851       C  0.60120904  0.19633719  0.99027945    -0.54600
C1852       C  0.59826835  0.17786946  0.95634212     0.09500
H1853       H  0.55525717  0.17407662  0.56416344     0.14000
H1854       H  0.58948548  0.13321788  0.94623180    -0.00200
H1855       H  0.63485381  0.15930245  0.56221871     0.14300
H1856       H  0.60525955  0.21773098  0.98428241     0.14100
C1857       C  0.60311551  0.23508417  0.78630117     0.01700
C1858       C  0.60492485  0.26372481  0.79316606     0.01700
C1859       C  0.60615070  0.28154169  0.75652004    -0.18800
C1860       C  0.60510434  0.27174715  0.71238332     0.01700
C1861       C  0.60322522  0.24312205  0.70536170     0.01700
C1862       C  0.60236644  0.22524427  0.74210993    -0.18800
H1863       H  0.60117469  0.20346486  0.73615159     0.03700
H1864       H  0.60733414  0.30331987  0.76252954     0.03700
C1865       C  0.76573744  0.10521593  0.79340288     0.01700
C1866       C  0.73770299  0.09950160  0.79542147     0.01700
C1867       C  0.72261449  0.09588436  0.75584351    -0.18800
C1868       C  0.73444299  0.09880702  0.71319802     0.01700
C1869       C  0.76262878  0.10520469  0.71134171     0.01700
C1870       C  0.77748677  0.10896567  0.75130199    -0.18800
H1871       H  0.79884912  0.11407154  0.74951729     0.03700
H1872       H  0.70121104  0.09109823  0.75847169     0.03700
C1873       C  0.82426297  0.10495543  0.54513768     0.85900
C1874       C  0.83515858  0.07572743  0.53850620    -0.54300
C1875       C  0.85194426  0.07205537  0.00277005     0.08900
C1876       C  0.85439823  0.09799378  0.97358256     0.19800
C1877       C  0.84914866  0.12324675  0.54376295    -0.55000
C1878       C  0.86486040  0.12027841  0.00671250     0.09000
C1879       C  0.80883028  0.10966161  0.00110242    -0.54600
C1880       C  0.82436974  0.10618397  0.96329044     0.09500
H1881       H  0.83066457  0.05921411  0.56127910     0.14000
H1882       H  0.86738112  0.09516828  0.94329492    -0.00200
H1883       H  0.85344561  0.13807341  0.56975063     0.14300
H1884       H  0.78701608  0.11284601  0.99933092     0.14100
C1885       C  0.90159205  0.17989799  0.95257737     0.85900
C1886       C  0.92924644  0.16555588  0.95440012    -0.54300
C1887       C  0.93412284  0.15155460  0.49242150     0.08900
C1888       C  0.90945411  0.15135633  0.52500122     0.19800
C1889       C  0.88079870  0.15737824  0.95970208    -0.55000
C1890       C  0.88528051  0.14141565  0.49563680     0.09000
C1891       C  0.89910539  0.19675366  0.49631610    -0.54600
C1892       C  0.90336541  0.18206111  0.53438235     0.09500
H1893       H  0.94409384  0.16676784  0.92736849     0.14000
H1894       H  0.91274186  0.13915583  0.55565431    -0.00200
H1895       H  0.86166119  0.15629116  0.94252931     0.14300
H1896       H  0.89447784  0.21846211  0.49710332     0.14100
C1897       C  0.89845305  0.23936869  0.70662879     0.01700
C1898       C  0.89567898  0.26806440  0.70513694     0.01700
C1899       C  0.89364229  0.28378193  0.74478933    -0.18800
C1900       C  0.89482285  0.27169063  0.78693132     0.01700
C1901       C  0.89737097  0.24281356  0.78848943     0.01700
C1902       C  0.89968894  0.22720494  0.74859954    -0.18800
H1903       H  0.90223717  0.20525163  0.75033796     0.03700
H1904       H  0.89174294  0.30578282  0.74267846     0.03700
C1905       C  0.92549542  0.21672518  0.64338918    -0.02400
C1906       C  0.90025479  0.22201258  0.66483967     0.07300
C1907       C  0.87652473  0.21143621  0.64526898    -0.02500
C1908       C  0.87737442  0.20013379  0.60170200    -0.02500
C1909       C  0.90247769  0.19511910  0.57990256     0.07400
C1910       C  0.92660985  0.20334151  0.60119562    -0.02700
Br1911     Br  0.96112140  0.19809795  0.57117387    -0.01300
Br1912     Br  0.95871534  0.22569936  0.67346698    -0.01300
Br1913     Br  0.84383839  0.19415389  0.57053701    -0.01300
Br1914     Br  0.84344625  0.20902199  0.67977048    -0.01300
C1915       C  0.91931857  0.23082528  0.86089171    -0.02400
C1916       C  0.89760472  0.22794579  0.83109569     0.07300
C1917       C  0.87826095  0.20762141  0.83875870    -0.02500
C1918       C  0.88221545  0.18924505  0.87355591    -0.02500
C1919       C  0.89965597  0.19640648  0.90958289     0.07400
C1920       C  0.91853626  0.21776078  0.90232440    -0.02700
Br1921     Br  0.94599825  0.22765647  0.94561632    -0.01300
Br1922     Br  0.95271117  0.24726964  0.84155554    -0.01300
Br1923     Br  0.87248915  0.15202884  0.85876827    -0.01300
Br1924     Br  0.84764455  0.20266347  0.79946686    -0.01300
C1925       C  0.78624449  0.13089293  0.85915127    -0.02400
C1926       C  0.78317512  0.10639899  0.83463808     0.07300
C1927       C  0.79645270  0.08265595  0.85019817    -0.02500
C1928       C  0.80906049  0.08239248  0.89240375    -0.02500
C1929       C  0.81172838  0.10669038  0.91759870     0.07400
C1930       C  0.80034230  0.13106169  0.90036658    -0.02700
Br1931     Br  0.80342430  0.16476078  0.93355354    -0.01300
Br1932     Br  0.77274754  0.16457782  0.83478822    -0.01300
Br1933     Br  0.81909644  0.04768194  0.91731293    -0.01300
Br1934     Br  0.79942355  0.05058359  0.81287938    -0.01300
C1935       C  0.77226597  0.12702549  0.63682553    -0.02400
C1936       C  0.77811184  0.10682610  0.66881742     0.07300
C1937       C  0.80174188  0.09054869  0.66329654    -0.02500
C1938       C  0.81889480  0.09470362  0.62707495    -0.02500
C1939       C  0.80901838  0.10874477  0.58933554     0.07400
C1940       C  0.78697448  0.12737356  0.59608799    -0.02700
Br1941     Br  0.77959157  0.15661216  0.55489083    -0.01300
Br1942     Br  0.74664763  0.15600978  0.65078203    -0.01300
Br1943     Br  0.85696954  0.08441370  0.63335486    -0.01300
Br1944     Br  0.81096066  0.06119005  0.70295105    -0.01300
C1945       C  0.62521256  0.19769823  0.89189337    -0.02400
C1946       C  0.60041649  0.18716547  0.90835082     0.07300
C1947       C  0.57718002  0.18921138  0.88077899    -0.02500
C1948       C  0.57839460  0.20288402  0.83914468    -0.02500
C1949       C  0.60264171  0.21546793  0.82504291     0.07400
C1950       C  0.62646301  0.21031864  0.84959316    -0.02700
Br1951     Br  0.66118285  0.21758252  0.82255367    -0.01300
Br1952     Br  0.65753256  0.19650525  0.92800848    -0.01300
Br1953     Br  0.54709924  0.20322753  0.80058903    -0.01300
Br1954     Br  0.54278072  0.17594966  0.90144308    -0.01300
C1955       C  0.62636485  0.20916537  0.59729811    -0.02400
C1956       C  0.60153632  0.20644660  0.57421891     0.07300
C1957       C  0.57890838  0.22200959  0.58995240    -0.02500
C1958       C  0.57903937  0.23318423  0.63343637    -0.02500
C1959       C  0.60266478  0.23123592  0.65968075     0.07400
C1960       C  0.62633225  0.21898308  0.64144995    -0.02700
Br1961     Br  0.65811432  0.21296699  0.67771226    -0.01300
Br1962     Br  0.66078041  0.20626571  0.56586063    -0.01300
Br1963     Br  0.54567864  0.24762602  0.65874599    -0.01300
Br1964     Br  0.54891656  0.23070539  0.55083856    -0.01300
C1965       C  0.67701996  0.10969587  0.62731333    -0.02400
C1966       C  0.68509286  0.09231990  0.59149157     0.07300
C1967       C  0.70612539  0.07310500  0.60034557    -0.02500
C1968       C  0.72134455  0.07436664  0.64051930    -0.02500
C1969       C  0.71673236  0.09563201  0.67200040     0.07400
C1970       C  0.69349855  0.11255860  0.66567701    -0.02700
Br1971     Br  0.68404839  0.14084092  0.70830523    -0.01300
Br1972     Br  0.64159525  0.12637041  0.62895121    -0.01300
Br1973     Br  0.74626782  0.04512201  0.65458163    -0.01300
Br1974     Br  0.71101186  0.04211523  0.56123059    -0.01300
C1975       C  0.71188598  0.07796151  0.90893123    -0.02400
C1976       C  0.69262907  0.09914188  0.91912774     0.07300
C1977       C  0.68664699  0.11781679  0.88422546    -0.02500
C1978       C  0.70535997  0.12102903  0.84962552    -0.02500
C1979       C  0.72303773  0.09935725  0.83851681     0.07400
C1980       C  0.72381696  0.07644342  0.86614759    -0.02700
Br1981     Br  0.73505134  0.04152083  0.84208102    -0.01300
Br1982     Br  0.71990514  0.04855755  0.94907653    -0.01300
Br1983     Br  0.70367660  0.15379863  0.81504387    -0.01300
Br1984     Br  0.64973193  0.12721203  0.86709763    -0.01300
C1985       C  0.87183753  0.30576046  0.89771109    -0.02400
C1986       C  0.89608044  0.31839454  0.91201858     0.07300
C1987       C  0.91875159  0.31764175  0.88276404    -0.02500
C1988       C  0.91698853  0.30539049  0.84006738    -0.02500
C1989       C  0.89423005  0.28957617  0.82839500     0.07400
C1990       C  0.87118950  0.29082540  0.85684243    -0.02700
Br1991     Br  0.83813232  0.27355555  0.83831328    -0.01300
Br1992     Br  0.83918137  0.30929532  0.93338215    -0.01300
Br1993     Br  0.94619100  0.31105597  0.79812202    -0.01300
Br1994     Br  0.95386155  0.32956850  0.90222036    -0.01300
C1995       C  0.91862035  0.31683788  0.61847604    -0.02400
C1996       C  0.89984054  0.31271043  0.58324660     0.07300
C1997       C  0.87655062  0.29690709  0.59281722    -0.02500
C1998       C  0.87413781  0.28449033  0.63477749    -0.02500
C1999       C  0.89694829  0.28265410  0.66263966     0.07400
C2000       C  0.91982429  0.29831386  0.65312338    -0.02700
Br2001     Br  0.95242569  0.29635973  0.68806903    -0.01300
Br2002     Br  0.93539332  0.35176769  0.63035958    -0.01300
Br2003     Br  0.83873199  0.27524793  0.65725144    -0.01300
Br2004     Br  0.84659206  0.29352465  0.55212568    -0.01300
C2005       C  0.80071152  0.38218550  0.59661102    -0.02400
C2006       C  0.81342536  0.40678412  0.58439800     0.07300
C2007       C  0.81359871  0.42841963  0.61597443    -0.02500
C2008       C  0.80059309  0.42581390  0.65815831    -0.02500
C2009       C  0.78507228  0.40241806  0.66793729     0.07400
C2010       C  0.78675082  0.38001451  0.63797271    -0.02700
Br2011     Br  0.77201341  0.34543135  0.65529656    -0.01300
Br2012     Br  0.80269470  0.35100173  0.55695529    -0.01300
Br2013     Br  0.80395001  0.45482397  0.70203825    -0.01300
Br2014     Br  0.82914496  0.46286291  0.60040412    -0.01300
C2015       C  0.79900146  0.38376412  0.84181215    -0.02400
C2016       C  0.77742263  0.40225127  0.83426121     0.07300
C2017       C  0.77293978  0.42385019  0.86493309    -0.02500
C2018       C  0.78611994  0.42369445  0.90646232    -0.02500
C2019       C  0.80864089  0.40573617  0.91318682     0.07400
C2020       C  0.81709160  0.38894491  0.87644278    -0.02700
Br2021     Br  0.85502203  0.38352837  0.85998988    -0.01300
Br2022     Br  0.80614340  0.35268627  0.80290229    -0.01300
Br2023     Br  0.77494279  0.45085403  0.95058820    -0.01300
Br2024     Br  0.75381387  0.45644090  0.84698291    -0.01300
C2025       C  0.71741287  0.37759273  0.86047930    -0.02400
C2026       C  0.71585558  0.39932151  0.82992809     0.07300
C2027       C  0.69716909  0.42087056  0.83929298    -0.02500
C2028       C  0.68343208  0.42254318  0.88116207    -0.02500
C2029       C  0.68676680  0.40192577  0.91368583     0.07400
C2030       C  0.70345443  0.37900613  0.90212004    -0.02700
Br2031     Br  0.70740319  0.34887375  0.94274816    -0.01300
Br2032     Br  0.73674715  0.34462008  0.84342146    -0.01300
Br2033     Br  0.66242068  0.45486759  0.89455530    -0.01300
Br2034     Br  0.69079853  0.44897807  0.79532206    -0.01300
C2035       C  0.71206295  0.42046131  0.59226633    -0.02400
C2036       C  0.69135707  0.40087452  0.58496171     0.07300
C2037       C  0.68551198  0.38273765  0.62065494    -0.02500
C2038       C  0.70455628  0.37893827  0.65455388    -0.02500
C2039       C  0.72359482  0.39944882  0.66323547     0.07400
C2040       C  0.72525727  0.42158069  0.63373538    -0.02700
Br2041     Br  0.73999221  0.45581254  0.65350617    -0.01300
Br2042     Br  0.72060859  0.44846953  0.54919940    -0.01300
Br2043     Br  0.70192621  0.34696817  0.69169009    -0.01300
Br2044     Br  0.64882360  0.37347299  0.63830872    -0.01300
C2045       C  0.62795120  0.29336355  0.64543420    -0.02400
C2046       C  0.60516405  0.29148309  0.67394361     0.07300
C2047       C  0.58194536  0.30748300  0.66410232    -0.02500
C2048       C  0.57964981  0.32058917  0.62218698    -0.02500
C2049       C  0.60105190  0.31882528  0.59024422     0.06600
C2050       C  0.62572809  0.30595074  0.60323188    -0.02700
Br2051     Br  0.65689388  0.30517854  0.56366707    -0.01300
Br2052     Br  0.66298147  0.28184958  0.66691655    -0.01300
Br2053     Br  0.54604164  0.33873634  0.60806529    -0.01300
Br2054     Br  0.55349590  0.31207102  0.70857342    -0.01300
C2055       C  0.62515284  0.29531402  0.90393301    -0.02400
C2056       C  0.59943669  0.30063707  0.92368238     0.07300
C2057       C  0.57656962  0.28787058  0.90455496    -0.02500
C2058       C  0.57811887  0.27770366  0.86070458    -0.02500
C2059       C  0.60338524  0.27580579  0.83853120     0.07400
C2060       C  0.62697647  0.28484756  0.86018061    -0.02700
Br2061     Br  0.66118033  0.28669139  0.82851635    -0.01300
Br2062     Br  0.65777595  0.29778513  0.93885604    -0.01300
Br2063     Br  0.54490014  0.27113310  0.82888690    -0.01300
Br2064     Br  0.54468207  0.27953988  0.93994527    -0.01300
O2065       O  0.52603821  0.93625726  0.03804397    -0.73500
O2066       O  0.97061483  0.87858622  0.03195820    -0.74500
O2067       O  0.52986791  0.88013517  0.03574155    -0.63100
O2068       O  0.96951765  0.93566105  0.03468943    -0.71500
O2069       O  0.97168902  0.93749971  0.46039590    -0.71100
O2070       O  0.52790846  0.87810797  0.46171985    -0.62300
O2071       O  0.96837987  0.88112070  0.45799855    -0.74800
O2072       O  0.52826095  0.93499711  0.46361008    -0.73600
Cu2073     Cu  0.99884213  0.90733092  0.03773249     1.04600
Cu2074     Cu  0.49917465  0.90766881  0.45825770     1.04300
C2075       C  0.53589800  0.94457724  0.00124731     0.92700
C2076       C  0.95907548  0.87239423  0.49501740     0.91800
C2077       C  0.53953039  0.87157028  0.99842076     0.84000
C2078       C  0.96195024  0.94599364  0.49767518     0.90200
O2079       O  0.93376575  0.97771377  0.03549977    -0.73500
O2080       O  0.87527162  0.53452886  0.03534568    -0.74500
O2081       O  0.87798920  0.97494326  0.03531909    -0.63100
O2082       O  0.93219001  0.53509548  0.03590227    -0.71500
O2083       O  0.93404998  0.53429312  0.46150746    -0.71100
O2084       O  0.87624327  0.97841486  0.46144890    -0.62300
O2085       O  0.87773008  0.53808798  0.46148602    -0.74800
O2086       O  0.93276557  0.97694574  0.46109047    -0.73600
Cu2087     Cu  0.90454400  0.50570118  0.03815044     1.04600
Cu2088     Cu  0.90496517  0.50691633  0.45874059     1.04300
C2089       C  0.94191986  0.96791635  0.99806328     0.92700
C2090       C  0.86884159  0.54684922  0.49924169     0.91800
C2091       C  0.87003103  0.96596713  0.99753045     0.84000
C2092       C  0.94204777  0.54361481  0.49901555     0.90200
O2093       O  0.52838067  0.63051534  0.03798862    -0.73500
O2094       O  0.97157310  0.57290924  0.03718034    -0.74500
O2095       O  0.52842803  0.57318246  0.03890973    -0.63100
O2096       O  0.96851648  0.62916756  0.03586720    -0.71500
O2097       O  0.97342838  0.62984020  0.46199437    -0.71100
O2098       O  0.52867243  0.57089360  0.46448699    -0.62300
O2099       O  0.97213804  0.57330836  0.46274534    -0.74800
O2100       O  0.53288601  0.62696698  0.46430386    -0.73600
Cu2101     Cu  0.49928965  0.60179693  0.04019510     1.04600
Cu2102     Cu  0.00182665  0.60055721  0.46080885     1.04300
C2103       C  0.54127189  0.63604062  0.50184614     0.92700
C2104       C  0.96286002  0.56425402  0.99967262     0.91800
C2105       C  0.53707986  0.56262703  0.50218727     0.84000
C2106       C  0.96009707  0.63647175  0.99744423     0.90200
O2107       O  0.62191524  0.97351276  0.03880466    -0.73500
O2108       O  0.56448643  0.53119798  0.04026433    -0.74500
O2109       O  0.56543897  0.97396967  0.03920772    -0.63100
O2110       O  0.62017083  0.53367769  0.03970632    -0.71500
O2111       O  0.62222043  0.52956037  0.46572960    -0.71100
O2112       O  0.56456642  0.97461786  0.46474616    -0.62300
O2113       O  0.56629914  0.53141942  0.46581158    -0.74800
O2114       O  0.61999002  0.96976318  0.46497246    -0.73600
Cu2115     Cu  0.59329512  0.50298928  0.04222442     1.04600
Cu2116     Cu  0.59357802  0.50137338  0.46273828     1.04300
C2117       C  0.62792904  0.96060807  0.50250725     0.92700
C2118       C  0.55685494  0.54072028  0.00287053     0.91800
C2119       C  0.55621828  0.96537555  0.50190468     0.84000
C2120       C  0.62785910  0.54256985  0.00172152     0.90200
C2121       C  0.59616680  0.82202354  0.46110349     0.85900
C2122       C  0.56840712  0.83651071  0.46220805    -0.54300
C2123       C  0.56461135  0.85440156  0.99660637     0.08900
C2124       C  0.59027483  0.85742352  0.02653515     0.19800
C2125       C  0.61588945  0.84630611  0.45837030    -0.55000
C2126       C  0.61333875  0.86473432  0.99252755     0.09000
C2127       C  0.59992096  0.80985469  0.00776795    -0.54600
C2128       C  0.59719989  0.82799118  0.04248009     0.09500
H2129       H  0.55340634  0.83432145  0.43602643     0.14000
H2130       H  0.58790660  0.87251206  0.05425519    -0.00200
H2131       H  0.63125489  0.84846319  0.43244250     0.14300
H2132       H  0.60444461  0.78836882  0.01287576     0.14100
C2133       C  0.67387750  0.90272597  0.04269168     0.85900
C2134       C  0.65864882  0.92987940  0.04234316    -0.54300
C2135       C  0.64363029  0.93463025  0.50537265     0.08900
C2136       C  0.64357207  0.90996624  0.47187854     0.19800
C2137       C  0.65196810  0.88111717  0.03620481    -0.55000
C2138       C  0.63511800  0.88518216  0.50120384     0.09000
C2139       C  0.68975556  0.90137951  0.49801780    -0.54600
C2140       C  0.67428859  0.90462809  0.46028729     0.09500
H2141       H  0.66006219  0.94458690  0.06965628     0.14000
H2142       H  0.63039546  0.91288955  0.44227781    -0.00200
H2143       H  0.65119435  0.86230435  0.05430938     0.14300
H2144       H  0.71157750  0.89782230  0.49649459     0.14100
C2145       C  0.73816493  0.89982303  0.20650923     0.01700
C2146       C  0.76691979  0.90152417  0.20897319     0.01700
C2147       C  0.77859917  0.90246956  0.25150303    -0.18800
C2148       C  0.76280946  0.90134348  0.29112955     0.01700
C2149       C  0.73402887  0.89982361  0.28876366     0.01700
C2150       C  0.72232471  0.89919727  0.24616742    -0.18800
H2151       H  0.70038403  0.89826157  0.24376244     0.03700
H2152       H  0.80050237  0.90400149  0.25388230     0.03700
C2153       C  0.82551450  0.90817025  0.45578929     0.85900
C2154       C  0.83932648  0.93572415  0.45722414    -0.54300
C2155       C  0.85441618  0.94045948  0.99414557     0.08900
C2156       C  0.85554461  0.91584508  0.02665492     0.19800
C2157       C  0.84835262  0.88698829  0.46136382    -0.55000
C2158       C  0.86494672  0.89130601  0.99652538     0.09000
C2159       C  0.80975071  0.90613082  0.00042017    -0.54600
C2160       C  0.82521386  0.90995760  0.03797629     0.09500
H2161       H  0.83726069  0.95048318  0.43048901     0.14000
H2162       H  0.86853022  0.91897655  0.05645015    -0.00200
H2163       H  0.84968768  0.86809664  0.44260552     0.14300
H2164       H  0.78825772  0.90142411  0.00218782     0.14100
C2165       C  0.90261317  0.82875219  0.04015542     0.85900
C2166       C  0.93160099  0.83819726  0.03119173    -0.54300
C2167       C  0.93429002  0.85571606  0.49703012     0.08900
C2168       C  0.90761390  0.85983832  0.47027244     0.19800
C2169       C  0.88461620  0.85449448  0.04210015    -0.55000
C2170       C  0.88664743  0.87069573  0.50579781     0.09000
C2171       C  0.89593928  0.81421746  0.49565815    -0.54600
C2172       C  0.89843470  0.83026113  0.45855215     0.09500
H2173       H  0.94913567  0.83161527  0.05027748     0.14000
H2174       H  0.90975652  0.87328341  0.44078921    -0.00200
H2175       H  0.86975884  0.85835349  0.06859174     0.14300
H2176       H  0.89160031  0.79261852  0.49318724     0.14100
C2177       C  0.67526919  0.59815061  0.46200174     0.85900
C2178       C  0.65871827  0.57222001  0.46129462    -0.54300
C2179       C  0.64290649  0.56832972  0.99778713     0.08900
C2180       C  0.64270920  0.59284865  0.03108120     0.19800
C2181       C  0.65465255  0.62147659  0.46807050    -0.55000
C2182       C  0.63628993  0.61855605  0.00127922     0.09000
C2183       C  0.69010866  0.59790342  0.00755184    -0.54600
C2184       C  0.67336109  0.59501055  0.04452562     0.09500
H2185       H  0.66029883  0.55733384  0.43416823     0.14000
H2186       H  0.62845428  0.59007496  0.05950231    -0.00200
H2187       H  0.65581346  0.64050678  0.45046821     0.14300
H2188       H  0.71203482  0.59948108  0.01023342     0.14100
C2189       C  0.59817517  0.68475986  0.03730546     0.85900
C2190       C  0.57041896  0.67058727  0.03808275    -0.54300
C2191       C  0.56653392  0.65232420  0.50422560     0.08900
C2192       C  0.59198389  0.64848851  0.47349063     0.19800
C2193       C  0.61829692  0.66047952  0.03905387    -0.55000
C2194       C  0.61514471  0.64091332  0.50727306     0.09000
C2195       C  0.60120875  0.69633720  0.49027932    -0.54600
C2196       C  0.59826799  0.67786945  0.45634207     0.09500
H2197       H  0.55525733  0.67407647  0.06416328     0.14000
H2198       H  0.58948505  0.63321792  0.44623194    -0.00200
H2199       H  0.63485382  0.65930236  0.06221912     0.14300
H2200       H  0.60525927  0.71773097  0.48428221     0.14100
C2201       C  0.60311522  0.73508431  0.28630128     0.01700
C2202       C  0.60492453  0.76372494  0.29316612     0.01700
C2203       C  0.60615038  0.78154185  0.25652007    -0.18800
C2204       C  0.60510407  0.77174724  0.21238333     0.01700
C2205       C  0.60322506  0.74312215  0.20536178     0.01700
C2206       C  0.60236627  0.72524437  0.24211004    -0.18800
H2207       H  0.60117459  0.70346500  0.23615178     0.03700
H2208       H  0.60733381  0.80331989  0.26252952     0.03700
C2209       C  0.76573754  0.60521554  0.29340287     0.01700
C2210       C  0.73770309  0.59950125  0.29542140     0.01700
C2211       C  0.72261469  0.59588398  0.25584333    -0.18800
C2212       C  0.73444328  0.59880670  0.21319787     0.01700
C2213       C  0.76262905  0.60520443  0.21134166     0.01700
C2214       C  0.77748696  0.60896535  0.25130205    -0.18800
H2215       H  0.79884926  0.61407128  0.24951751     0.03700
H2216       H  0.70121129  0.59109778  0.25847138     0.03700
C2217       C  0.82426319  0.60495589  0.04513765     0.85900
C2218       C  0.83515854  0.57572781  0.03850602    -0.54300
C2219       C  0.85194421  0.57205504  0.50277029     0.08900
C2220       C  0.85439808  0.59799343  0.47358275     0.19800
C2221       C  0.84914899  0.62324703  0.04376293    -0.55000
C2222       C  0.86486017  0.62027810  0.50671262     0.09000
C2223       C  0.80883005  0.60966105  0.50110255    -0.54600
C2224       C  0.82436958  0.60618346  0.46329058     0.09500
H2225       H  0.83066443  0.55921455  0.06127881     0.14000
H2226       H  0.86738100  0.59516795  0.44329512    -0.00200
H2227       H  0.85344609  0.63807360  0.06975076     0.14300
H2228       H  0.78701594  0.61284533  0.49933102     0.14100
C2229       C  0.90159161  0.67989795  0.45257770     0.85900
C2230       C  0.92924609  0.66555609  0.45440064    -0.54300
C2231       C  0.93412312  0.65155451  0.99242105     0.08900
C2232       C  0.90945448  0.65135645  0.02500090     0.19800
C2233       C  0.88079842  0.65737800  0.45970215    -0.55000
C2234       C  0.88528075  0.64141590  0.99563667     0.09000
C2235       C  0.89910605  0.69675386  0.99631574    -0.54600
C2236       C  0.90336605  0.68206126  0.03438203     0.09500
H2237       H  0.94409364  0.66676826  0.42736911     0.14000
H2238       H  0.91274222  0.63915591  0.05565403    -0.00200
H2239       H  0.86166092  0.65629080  0.44252927     0.14300
H2240       H  0.89447870  0.71846223  0.99710295     0.14100
C2241       C  0.89845402  0.73936851  0.20662883     0.01700
C2242       C  0.89567985  0.76806423  0.20513682     0.01700
C2243       C  0.89364316  0.78378178  0.24478913    -0.18800
C2244       C  0.89482363  0.77169059  0.28693117     0.01700
C2245       C  0.89737168  0.74281351  0.28848952     0.01700
C2246       C  0.89968980  0.72720483  0.24859970    -0.18800
H2247       H  0.90223799  0.70525150  0.25033826     0.03700
H2248       H  0.89174378  0.80578275  0.24267813     0.03700
C2249       C  0.92549632  0.71672520  0.14338892    -0.02400
C2250       C  0.90025574  0.72201238  0.16483970     0.07300
C2251       C  0.87652566  0.71143601  0.14526906    -0.02500
C2252       C  0.87737525  0.70013380  0.10170193    -0.02500
C2253       C  0.90247846  0.69511926  0.07990225     0.07400
C2254       C  0.92661066  0.70334173  0.10119516    -0.02700
Br2255     Br  0.96112211  0.69809858  0.07117295    -0.01300
Br2256     Br  0.95871627  0.72569921  0.17346674    -0.01300
Br2257     Br  0.84383912  0.69415394  0.07053714    -0.01300
Br2258     Br  0.84344738  0.70902123  0.17977091    -0.01300
C2259       C  0.91931859  0.73082538  0.36089262    -0.02400
C2260       C  0.89760505  0.72794581  0.33109595     0.07300
C2261       C  0.87826120  0.70762146  0.33875868    -0.02500
C2262       C  0.88221545  0.68924508  0.37355596    -0.02500
C2263       C  0.89965565  0.69640655  0.40958334     0.07400
C2264       C  0.91853585  0.71776100  0.40232540    -0.02700
Br2265     Br  0.94599712  0.72765713  0.44561834    -0.01300
Br2266     Br  0.95271131  0.74726989  0.34155760    -0.01300
Br2267     Br  0.87248905  0.65202889  0.35876833    -0.01300
Br2268     Br  0.84764488  0.70266371  0.29946665    -0.01300
C2269       C  0.78624444  0.63089247  0.35915136    -0.02400
C2270       C  0.78317516  0.60639855  0.33463809     0.07300
C2271       C  0.79645277  0.58265551  0.35019810    -0.02500
C2272       C  0.80906052  0.58239201  0.39240371    -0.02500
C2273       C  0.81172826  0.60668988  0.41759881     0.07400
C2274       C  0.80034214  0.63106118  0.40036676    -0.02700
Br2275     Br  0.80342382  0.66476020  0.43355398    -0.01300
Br2276     Br  0.77274764  0.66457742  0.33478832    -0.01300
Br2277     Br  0.81909675  0.54768154  0.41731270    -0.01300
Br2278     Br  0.79942365  0.55058320  0.31287917    -0.01300
C2279       C  0.77226620  0.62702558  0.13682572    -0.02400
C2280       C  0.77811219  0.60682610  0.16881743     0.07300
C2281       C  0.80174242  0.59054896  0.16329655    -0.02500
C2282       C  0.81889531  0.59470407  0.12707496    -0.02500
C2283       C  0.80901875  0.60874524  0.08933564     0.07400
C2284       C  0.78697478  0.62737391  0.09608824    -0.02700
Br2285     Br  0.77959185  0.65661263  0.05489129    -0.01300
Br2286     Br  0.74664757  0.65600960  0.15078241    -0.01300
Br2287     Br  0.85697004  0.58441395  0.13335433    -0.01300
Br2288     Br  0.81096156  0.56119047  0.20295116    -0.01300
C2289       C  0.62521225  0.69769820  0.39189340    -0.02400
C2290       C  0.60041619  0.68716538  0.40835074     0.07300
C2291       C  0.57717977  0.68921120  0.38077881    -0.02500
C2292       C  0.57839432  0.70288398  0.33914462    -0.02500
C2293       C  0.60264139  0.71546804  0.32504302     0.07400
C2294       C  0.62646270  0.71031874  0.34959328    -0.02700
Br2295     Br  0.66118254  0.71758296  0.32255411    -0.01300
Br2296     Br  0.65753224  0.69650510  0.42800854    -0.01300
Br2297     Br  0.54709893  0.70322757  0.30058909    -0.01300
Br2298     Br  0.54278058  0.67594907  0.40144255    -0.01300
C2299       C  0.62636487  0.70916528  0.09729844    -0.02400
C2300       C  0.60153639  0.70644656  0.07421905     0.07300
C2301       C  0.57890842  0.72200958  0.08995237    -0.02500
C2302       C  0.57903935  0.73318424  0.13343634    -0.02500
C2303       C  0.60266472  0.73123596  0.15968086     0.07400
C2304       C  0.62633221  0.71898304  0.14145025    -0.02700
Br2305     Br  0.65811420  0.71296686  0.17771272    -0.01300
Br2306     Br  0.66078050  0.70626555  0.06586113    -0.01300
Br2307     Br  0.54567852  0.74762589  0.15874581    -0.01300
Br2308     Br  0.54891651  0.73070505  0.05083843    -0.01300
C2309       C  0.67702013  0.60969533  0.12731342    -0.02400
C2310       C  0.68509306  0.59231946  0.09149158     0.07300
C2311       C  0.70612571  0.57310466  0.10034542    -0.02500
C2312       C  0.72134499  0.57436636  0.14051902    -0.02500
C2313       C  0.71673269  0.59563165  0.17200023     0.07400
C2314       C  0.69349875  0.61255809  0.16567704    -0.02700
Br2315     Br  0.68404851  0.64084034  0.20830534    -0.01300
Br2316     Br  0.64159551  0.62637004  0.12895127    -0.01300
Br2317     Br  0.74626856  0.54512187  0.15458083    -0.01300
Br2318     Br  0.71101215  0.54211485  0.06123057    -0.01300
C2319       C  0.71188572  0.57796128  0.40893115    -0.02400
C2320       C  0.69262881  0.59914169  0.41912751     0.07300
C2321       C  0.68664675  0.61781648  0.38422507    -0.02500
C2322       C  0.70535985  0.62102869  0.34962529    -0.02500
C2323       C  0.72303771  0.59935694  0.33851673     0.07400
C2324       C  0.72381686  0.57644314  0.36614761    -0.02700
Br2325     Br  0.73505125  0.54152051  0.34208117    -0.01300
Br2326     Br  0.71990484  0.54855739  0.44907662    -0.01300
Br2327     Br  0.70367670  0.65379834  0.31504389    -0.01300
Br2328     Br  0.64973167  0.62721146  0.36709680    -0.01300
C2329       C  0.87183814  0.80576040  0.39771067    -0.02400
C2330       C  0.89608103  0.81839445  0.41201832     0.07300
C2331       C  0.91875226  0.81764165  0.38276393    -0.02500
C2332       C  0.91698925  0.80539047  0.34006721    -0.02500
C2333       C  0.89423075  0.78957622  0.32839467     0.07400
C2334       C  0.87119015  0.79082546  0.35684193    -0.02700
Br2335     Br  0.83813285  0.77355597  0.33831235    -0.01300
Br2336     Br  0.83918191  0.80929497  0.43338162    -0.01300
Br2337     Br  0.94619194  0.81105562  0.29812210    -0.01300
Br2338     Br  0.95386225  0.82956811  0.40222073    -0.01300
C2339       C  0.91862064  0.81683801  0.11847590    -0.02400
C2340       C  0.89984062  0.81271069  0.08324674     0.07300
C2341       C  0.87655073  0.79690734  0.09281756    -0.02500
C2342       C  0.87413826  0.78449020  0.13477762    -0.02500
C2343       C  0.89694891  0.78265393  0.16263947     0.07400
C2344       C  0.91982478  0.79831388  0.15312309    -0.02700
Br2345     Br  0.95242625  0.79635978  0.18806850    -0.01300
Br2346     Br  0.93539360  0.85176787  0.13035938    -0.01300
Br2347     Br  0.83873270  0.77524697  0.15725158    -0.01300
Br2348     Br  0.84659180  0.79352550  0.05212655    -0.01300
C2349       C  0.80071099  0.88218550  0.09661064    -0.02400
C2350       C  0.81342498  0.90678413  0.08439799     0.07300
C2351       C  0.81359856  0.92841944  0.11597481    -0.02500
C2352       C  0.80059298  0.92581357  0.15815870    -0.02500
C2353       C  0.78507205  0.90241776  0.16793738     0.07400
C2354       C  0.78675044  0.88001434  0.13797247    -0.02700
Br2355     Br  0.77201291  0.84543117  0.15529598    -0.01300
Br2356     Br  0.80269359  0.85100199  0.05695413    -0.01300
Br2357     Br  0.80394990  0.95482355  0.20203894    -0.01300
Br2358     Br  0.82914505  0.96286272  0.10040494    -0.01300
C2359       C  0.79900130  0.88376369  0.34181225    -0.02400
C2360       C  0.77742259  0.90225097  0.33426132     0.07300
C2361       C  0.77293998  0.92384999  0.36493306    -0.02500
C2362       C  0.78612022  0.92369425  0.40646223    -0.02500
C2363       C  0.80864105  0.90573582  0.41318679     0.07400
C2364       C  0.81709153  0.88894438  0.37644280    -0.02700
Br2365     Br  0.85502181  0.88352720  0.35998972    -0.01300
Br2366     Br  0.80614290  0.85268572  0.30290242    -0.01300
Br2367     Br  0.77494327  0.95085391  0.45058805    -0.01300
Br2368     Br  0.75381418  0.95644074  0.34698273    -0.01300
C2369       C  0.71741275  0.87759287  0.36047989    -0.02400
C2370       C  0.71585547  0.89932153  0.32992847     0.07300
C2371       C  0.69716904  0.92087064  0.33929318    -0.02500
C2372       C  0.68343205  0.92254342  0.38116231    -0.02500
C2373       C  0.68676669  0.90192606  0.41368620     0.07400
C2374       C  0.70345427  0.87900636  0.40212056    -0.02700
Br2375     Br  0.70740288  0.84887398  0.44274869    -0.01300
Br2376     Br  0.73674706  0.84462023  0.34342225    -0.01300
Br2377     Br  0.66242095  0.95486803  0.39455547    -0.01300
Br2378     Br  0.69079863  0.94897806  0.29532197    -0.01300
C2379       C  0.71206307  0.92046093  0.09226623    -0.02400
C2380       C  0.69135703  0.90087433  0.08496158     0.07300
C2381       C  0.68551163  0.88273767  0.12065497    -0.02500
C2382       C  0.70455584  0.87893813  0.15455404    -0.02500
C2383       C  0.72359452  0.89944853  0.16323567     0.07400
C2384       C  0.72525721  0.92158032  0.13373542    -0.02700
Br2385     Br  0.73999215  0.95581218  0.15350604    -0.01300
Br2386     Br  0.72060926  0.94846891  0.04919914    -0.01300
Br2387     Br  0.70192550  0.84696802  0.19169019    -0.01300
Br2388     Br  0.64882306  0.87347381  0.13830883    -0.01300
C2389       C  0.62795099  0.79336370  0.14543424    -0.02400
C2390       C  0.60516380  0.79148319  0.17394358     0.07300
C2391       C  0.58194512  0.80748308  0.16410218    -0.02500
C2392       C  0.57964960  0.82058917  0.12218677    -0.02500
C2393       C  0.60105177  0.81882537  0.09024415     0.06600
C2394       C  0.62572797  0.80595094  0.10323195    -0.02700
Br2395     Br  0.65689380  0.80517878  0.06366720    -0.01300
Br2396     Br  0.66298121  0.78184977  0.16691671    -0.01300
Br2397     Br  0.54604132  0.83873599  0.10806471    -0.01300
Br2398     Br  0.55349562  0.81207123  0.20857319    -0.01300
C2399       C  0.62515272  0.79531428  0.40393290    -0.02400
C2400       C  0.59943663  0.80063734  0.42368243     0.07300
C2401       C  0.57656951  0.78787083  0.40455514    -0.02500
C2402       C  0.57811868  0.77770375  0.36070482    -0.02500
C2403       C  0.60338500  0.77580596  0.33853126     0.07400
C2404       C  0.62697625  0.78484791  0.36018043    -0.02700
Br2405     Br  0.66118000  0.78669202  0.32851582    -0.01300
Br2406     Br  0.65777588  0.79778536  0.43885581    -0.01300
Br2407     Br  0.54489987  0.77113296  0.32888738    -0.01300
Br2408     Br  0.54468190  0.77954050  0.43994546    -0.01300
O2409       O  0.52603830  0.93625730  0.53804500    -0.73500
O2410       O  0.97061504  0.87858604  0.53195816    -0.74500
O2411       O  0.52986803  0.88013523  0.53574212    -0.63100
O2412       O  0.96951766  0.93566076  0.53468944    -0.71500
O2413       O  0.97168881  0.93749983  0.96039585    -0.71100
O2414       O  0.52790829  0.87810767  0.96171929    -0.62300
O2415       O  0.96837968  0.88112085  0.95799857    -0.74800
O2416       O  0.52826097  0.93499684  0.96360906    -0.73600
Cu2417     Cu  0.99884222  0.90733076  0.53773248     1.04600
Cu2418     Cu  0.49917457  0.90766861  0.95825693     1.04300
C2419       C  0.53589802  0.94457740  0.50124837     0.92700
C2420       C  0.95907525  0.87239443  0.99501743     0.91800
C2421       C  0.53953056  0.87157049  0.49842124     0.84000
C2422       C  0.96195011  0.94599383  0.99767521     0.90200
O2423       O  0.93376597  0.97771362  0.53549978    -0.73500
O2424       O  0.87527170  0.53452850  0.53534581    -0.74500
O2425       O  0.87798950  0.97494299  0.53531890    -0.63100
O2426       O  0.93219010  0.53509528  0.53590249    -0.71500
O2427       O  0.93404989  0.53429318  0.96150722    -0.71100
O2428       O  0.87624303  0.97841508  0.96144906    -0.62300
O2429       O  0.87772991  0.53808822  0.96148585    -0.74800
O2430       O  0.93276535  0.97694583  0.96109044    -0.73600
Cu2431     Cu  0.90454415  0.50570090  0.53815041     1.04600
Cu2432     Cu  0.90496495  0.50691650  0.95874056     1.04300
C2433       C  0.94192005  0.96791620  0.49806336     0.92700
C2434       C  0.86884149  0.54684954  0.99924151     0.91800
C2435       C  0.87003131  0.96596687  0.49753026     0.84000
C2436       C  0.94204776  0.54361485  0.99901528     0.90200
O2437       O  0.52838040  0.63051549  0.53798894    -0.73500
O2438       O  0.97157294  0.57290944  0.53718059    -0.74500
O2439       O  0.52842787  0.57318263  0.53891054    -0.63100
O2440       O  0.96851628  0.62916780  0.53586759    -0.71500
O2441       O  0.97342860  0.62983995  0.96199398    -0.71100
O2442       O  0.52867264  0.57089364  0.96448617    -0.62300
O2443       O  0.97213825  0.57330815  0.96274505    -0.74800
O2444       O  0.53288627  0.62696703  0.96430353    -0.73600
Cu2445     Cu  0.49928942  0.60179707  0.54019563     1.04600
Cu2446     Cu  0.00182684  0.60055695  0.96080851     1.04300
C2447       C  0.54127216  0.63604055  0.00184588     0.92700
C2448       C  0.96285989  0.56425416  0.49967290     0.91800
C2449       C  0.53708002  0.56262694  0.00218641     0.84000
C2450       C  0.96009682  0.63647195  0.49744462     0.90200
O2451       O  0.62191515  0.97351294  0.53880546    -0.73500
O2452       O  0.56448640  0.53119812  0.54026519    -0.74500
O2453       O  0.56543894  0.97396993  0.53920880    -0.63100
O2454       O  0.62017080  0.53367782  0.53970684    -0.71500
O2455       O  0.62222066  0.52956024  0.96572911    -0.71100
O2456       O  0.56456652  0.97461762  0.96474510    -0.62300
O2457       O  0.56629932  0.53141931  0.96581075    -0.74800
O2458       O  0.61999022  0.96976299  0.96497167    -0.73600
Cu2459     Cu  0.59329509  0.50298943  0.54222523     1.04600
Cu2460     Cu  0.59357821  0.50137322  0.96273759     1.04300
C2461       C  0.62792921  0.96060790  0.00250649     0.92700
C2462       C  0.55685482  0.54072040  0.50287140     0.91800
C2463       C  0.55621831  0.96537534  0.00190359     0.84000
C2464       C  0.62785899  0.54256995  0.50172197     0.90200
C2465       C  0.59616676  0.82202331  0.96110339     0.85900
C2466       C  0.56840702  0.83651037  0.96220788    -0.54300
C2467       C  0.56461152  0.85440181  0.49660670     0.08900
C2468       C  0.59027502  0.85742366  0.52653539     0.19800
C2469       C  0.61588937  0.84630595  0.95837012    -0.55000
C2470       C  0.61333889  0.86473447  0.49252770     0.09000
C2471       C  0.59992098  0.80985486  0.50776802    -0.54600
C2472       C  0.59720002  0.82799131  0.54248024     0.09500
H2473       H  0.55340620  0.83432095  0.93602623     0.14000
H2474       H  0.58790686  0.87251221  0.55425549    -0.00200
H2475       H  0.63125473  0.84846303  0.93244251     0.14300
H2476       H  0.60444453  0.78836895  0.51287575     0.14100
C2477       C  0.67387745  0.90272615  0.54269202     0.85900
C2478       C  0.65864862  0.92987950  0.54234381    -0.54300
C2479       C  0.64363047  0.93463008  0.00537199     0.08900
C2480       C  0.64357215  0.90996593  0.97187813     0.19800
C2481       C  0.65196817  0.88111728  0.53620496    -0.55000
C2482       C  0.63511795  0.88518199  0.00120364     0.09000
C2483       C  0.68975559  0.90137909  0.99801748    -0.54600
C2484       C  0.67428868  0.90462762  0.96028694     0.09500
H2485       H  0.66006194  0.94458692  0.56965705     0.14000
H2486       H  0.63039555  0.91288919  0.94227739    -0.00200
H2487       H  0.65119452  0.86230429  0.55430924     0.14300
H2488       H  0.71157764  0.89782180  0.99649427     0.14100
C2489       C  0.73816522  0.89982333  0.70650905     0.01700
C2490       C  0.76692007  0.90152452  0.70897314     0.01700
C2491       C  0.77859939  0.90247001  0.75150298    -0.18800
C2492       C  0.76280963  0.90134378  0.79112941     0.01700
C2493       C  0.73402903  0.89982379  0.78876340     0.01700
C2494       C  0.72232495  0.89919756  0.74616713    -0.18800
H2495       H  0.70038425  0.89826185  0.74376202     0.03700
H2496       H  0.80050259  0.90400208  0.75388235     0.03700
C2497       C  0.82551428  0.90817057  0.95578934     0.85900
C2498       C  0.83932624  0.93572446  0.95722431    -0.54300
C2499       C  0.85441644  0.94045924  0.49414538     0.08900
C2500       C  0.85554489  0.91584489  0.52665480     0.19800
C2501       C  0.84835240  0.88698857  0.96136386    -0.55000
C2502       C  0.86494698  0.89130578  0.49652525     0.09000
C2503       C  0.80975096  0.90613056  0.50042022    -0.54600
C2504       C  0.82521418  0.90995747  0.53797630     0.09500
H2505       H  0.83726044  0.95048353  0.93048927     0.14000
H2506       H  0.86853054  0.91897641  0.55644996    -0.00200
H2507       H  0.84968753  0.86809701  0.94260545     0.14300
H2508       H  0.78825806  0.90142384  0.50218796     0.14100
C2509       C  0.90261335  0.82875196  0.54015523     0.85900
C2510       C  0.93160117  0.83819708  0.53119182    -0.54300
C2511       C  0.93428975  0.85571625  0.99703006     0.08900
C2512       C  0.90761356  0.85983847  0.97027251     0.19800
C2513       C  0.88461633  0.85449422  0.54209994    -0.55000
C2514       C  0.88664715  0.87069593  0.00579795     0.09000
C2515       C  0.89593897  0.81421765  0.99565846    -0.54600
C2516       C  0.89843429  0.83026126  0.95855239     0.09500
H2517       H  0.94913580  0.83161514  0.55027782     0.14000
H2518       H  0.90975609  0.87328350  0.94078917    -0.00200
H2519       H  0.86975895  0.85835315  0.56859124     0.14300
H2520       H  0.89159996  0.79261864  0.99318771     0.14100
C2521       C  0.67526938  0.59815062  0.96200192     0.85900
C2522       C  0.65871834  0.57222010  0.96129439    -0.54300
C2523       C  0.64290644  0.56832976  0.49778739     0.08900
C2524       C  0.64270904  0.59284882  0.53108116     0.19800
C2525       C  0.65465288  0.62147667  0.96807100    -0.55000
C2526       C  0.63628967  0.61855606  0.50127886     0.09000
C2527       C  0.69010846  0.59790370  0.50755171    -0.54600
C2528       C  0.67336092  0.59501091  0.54452555     0.09500
H2529       H  0.66029889  0.55733404  0.93416787     0.14000
H2530       H  0.62845413  0.59007520  0.55950221    -0.00200
H2531       H  0.65581387  0.64050695  0.95046898     0.14300
H2532       H  0.71203462  0.59948144  0.51023327     0.14100
C2533       C  0.59817502  0.68475987  0.53730537     0.85900
C2534       C  0.57041882  0.67058734  0.53808281    -0.54300
C2535       C  0.56653420  0.65232413  0.00422543     0.08900
C2536       C  0.59198423  0.64848851  0.97349065     0.19800
C2537       C  0.61829678  0.66047951  0.53905369    -0.55000
C2538       C  0.61514497  0.64091331  0.00727327     0.09000
C2539       C  0.60120898  0.69633719  0.99027947    -0.54600
C2540       C  0.59826833  0.67786949  0.95634216     0.09500
H2541       H  0.55525716  0.67407664  0.56416354     0.14000
H2542       H  0.58948547  0.63321792  0.94623186    -0.00200
H2543       H  0.63485368  0.65930237  0.56221868     0.14300
H2544       H  0.60525949  0.71773108  0.98428241     0.14100
C2545       C  0.60311550  0.73508418  0.78630120     0.01700
C2546       C  0.60492485  0.76372480  0.79316606     0.01700
C2547       C  0.60615069  0.78154173  0.75652005    -0.18800
C2548       C  0.60510437  0.77174713  0.71238331     0.01700
C2549       C  0.60322528  0.74312205  0.70536170     0.01700
C2550       C  0.60236649  0.72524426  0.74210995    -0.18800
H2551       H  0.60117479  0.70346487  0.73615163     0.03700
H2552       H  0.60733407  0.80331977  0.76252951     0.03700
C2553       C  0.76573739  0.60521595  0.79340297     0.01700
C2554       C  0.73770295  0.59950159  0.79542151     0.01700
C2555       C  0.72261447  0.59588432  0.75584351    -0.18800
C2556       C  0.73444301  0.59880704  0.71319804     0.01700
C2557       C  0.76262878  0.60520471  0.71134179     0.01700
C2558       C  0.77748676  0.60896568  0.75130210    -0.18800
H2559       H  0.79884906  0.61407153  0.74951744     0.03700
H2560       H  0.70121107  0.59109813  0.75847162     0.03700
C2561       C  0.82426297  0.60495544  0.54513768     0.85900
C2562       C  0.83515852  0.57572740  0.53850620    -0.54300
C2563       C  0.85194417  0.57205541  0.00277009     0.08900
C2564       C  0.85439817  0.59799383  0.97358259     0.19800
C2565       C  0.84914869  0.62324673  0.54376301    -0.55000
C2566       C  0.86486040  0.62027842  0.00671255     0.09000
C2567       C  0.80883022  0.60966166  0.00110256    -0.54600
C2568       C  0.82436970  0.60618404  0.96329054     0.09500
H2569       H  0.83066449  0.55921414  0.56127898     0.14000
H2570       H  0.86738103  0.59516835  0.94329500    -0.00200
H2571       H  0.85344565  0.63807331  0.56975062     0.14300
H2572       H  0.78701613  0.61284594  0.99933113     0.14100
C2573       C  0.90159203  0.67989803  0.95257734     0.85900
C2574       C  0.92924643  0.66555597  0.95440017    -0.54300
C2575       C  0.93412279  0.65155458  0.49242146     0.08900
C2576       C  0.90945407  0.65135635  0.52500120     0.19800
C2577       C  0.88079872  0.65737825  0.95970206    -0.55000
C2578       C  0.88528048  0.64141565  0.49563681     0.09000
C2579       C  0.89910537  0.69675371  0.49631611    -0.54600
C2580       C  0.90336540  0.68206111  0.53438237     0.09500
H2581       H  0.94409392  0.66676798  0.92736852     0.14000
H2582       H  0.91274181  0.63915580  0.55565433    -0.00200
H2583       H  0.86166114  0.65629115  0.94252917     0.14300
H2584       H  0.89447787  0.71846203  0.49710335     0.14100
C2585       C  0.89845306  0.73936871  0.70662880     0.01700
C2586       C  0.89567900  0.76806443  0.70513691     0.01700
C2587       C  0.89364233  0.78378199  0.74478926    -0.18800
C2588       C  0.89482279  0.77169072  0.78693128     0.01700
C2589       C  0.89737089  0.74281363  0.78848943     0.01700
C2590       C  0.89968893  0.72720503  0.74859957    -0.18800
H2591       H  0.90223722  0.70525159  0.75033804     0.03700
H2592       H  0.89174305  0.80578287  0.74267833     0.03700
C2593       C  0.92549544  0.71672526  0.64338914    -0.02400
C2594       C  0.90025481  0.72201262  0.66483968     0.07300
C2595       C  0.87652474  0.71143629  0.64526895    -0.02500
C2596       C  0.87737444  0.70013386  0.60170198    -0.02500
C2597       C  0.90247769  0.69511914  0.57990256     0.07400
C2598       C  0.92660984  0.70334160  0.60119556    -0.02700
Br2599     Br  0.96112131  0.69809809  0.57117358    -0.01300
Br2600     Br  0.95871540  0.72569930  0.67346697    -0.01300
Br2601     Br  0.84383844  0.69415383  0.57053701    -0.01300
Br2602     Br  0.84344632  0.70902193  0.67977050    -0.01300
C2603       C  0.91931848  0.73082543  0.86089177    -0.02400
C2604       C  0.89760464  0.72794591  0.83109572     0.07300
C2605       C  0.87826093  0.70762146  0.83875867    -0.02500
C2606       C  0.88221550  0.68924511  0.87355586    -0.02500
C2607       C  0.89965597  0.69640656  0.90958289     0.07400
C2608       C  0.91853620  0.71776092  0.90232448    -0.02700
Br2609     Br  0.94599812  0.72765662  0.94561656    -0.01300
Br2610     Br  0.95271107  0.74726978  0.84155556    -0.01300
Br2611     Br  0.87248924  0.65202891  0.85876825    -0.01300
Br2612     Br  0.84764449  0.70266343  0.79946689    -0.01300
C2613       C  0.78624455  0.63089300  0.85915124    -0.02400
C2614       C  0.78317511  0.60639902  0.83463813     0.07300
C2615       C  0.79645270  0.58265599  0.85019824    -0.02500
C2616       C  0.80906046  0.58239253  0.89240384    -0.02500
C2617       C  0.81172832  0.60669044  0.91759880     0.07400
C2618       C  0.80034234  0.63106176  0.90036658    -0.02700
Br2619     Br  0.80342438  0.66476088  0.93355351    -0.01300
Br2620     Br  0.77274763  0.66457791  0.83478821    -0.01300
Br2621     Br  0.81909653  0.54768204  0.91731296    -0.01300
Br2622     Br  0.79942344  0.55058351  0.81287965    -0.01300
C2623       C  0.77226602  0.62702558  0.63682568    -0.02400
C2624       C  0.77811187  0.60682615  0.66881753     0.07300
C2625       C  0.80174188  0.59054871  0.66329664    -0.02500
C2626       C  0.81889476  0.59470359  0.62707498    -0.02500
C2627       C  0.80901835  0.60874480  0.58933558     0.07400
C2628       C  0.78697451  0.62737366  0.59608809    -0.02700
Br2629     Br  0.77959149  0.65661224  0.55489088    -0.01300
Br2630     Br  0.74664773  0.65600990  0.65078234    -0.01300
Br2631     Br  0.85696946  0.58441362  0.63335487    -0.01300
Br2632     Br  0.81096073  0.56119018  0.70295137    -0.01300
C2633       C  0.62521259  0.69769827  0.89189347    -0.02400
C2634       C  0.60041651  0.68716548  0.90835086     0.07300
C2635       C  0.57718006  0.68921132  0.88077896    -0.02500
C2636       C  0.57839460  0.70288398  0.83914467    -0.02500
C2637       C  0.60264171  0.71546793  0.82504295     0.07400
C2638       C  0.62646304  0.71031865  0.84959320    -0.02700
Br2639     Br  0.66118289  0.71758262  0.82255372    -0.01300
Br2640     Br  0.65753260  0.69650521  0.92800870    -0.01300
Br2641     Br  0.54709918  0.70322747  0.80058905    -0.01300
Br2642     Br  0.54278080  0.67594937  0.90144279    -0.01300
C2643       C  0.62636487  0.70916532  0.59729814    -0.02400
C2644       C  0.60153637  0.70644657  0.57421890     0.07300
C2645       C  0.57890846  0.72200962  0.58995228    -0.02500
C2646       C  0.57903944  0.73318421  0.63343629    -0.02500
C2647       C  0.60266484  0.73123590  0.65968074     0.07400
C2648       C  0.62633232  0.71898308  0.64144995    -0.02700
Br2649     Br  0.65811439  0.71296693  0.67771224    -0.01300
Br2650     Br  0.66078036  0.70626564  0.56586061    -0.01300
Br2651     Br  0.54567869  0.74762598  0.65874573    -0.01300
Br2652     Br  0.54891667  0.73070534  0.55083829    -0.01300
C2653       C  0.67702002  0.60969585  0.62731332    -0.02400
C2654       C  0.68509292  0.59231992  0.59149154     0.07300
C2655       C  0.70612548  0.57310503  0.60034551    -0.02500
C2656       C  0.72134462  0.57436667  0.64051927    -0.02500
C2657       C  0.71673243  0.59563204  0.67200036     0.07400
C2658       C  0.69349861  0.61255860  0.66567699    -0.02700
Br2659     Br  0.68404847  0.64084087  0.70830526    -0.01300
Br2660     Br  0.64159532  0.62637036  0.62895121    -0.01300
Br2661     Br  0.74626774  0.54512194  0.65458168    -0.01300
Br2662     Br  0.71101193  0.54211521  0.56123061    -0.01300
C2663       C  0.71188585  0.57796146  0.90893118    -0.02400
C2664       C  0.69262901  0.59914188  0.91912775     0.07300
C2665       C  0.68664692  0.61781680  0.88422551    -0.02500
C2666       C  0.70535988  0.62102899  0.84962554    -0.02500
C2667       C  0.72303764  0.59935722  0.83851682     0.07400
C2668       C  0.72381684  0.57644338  0.86614756    -0.02700
Br2669     Br  0.73505122  0.54152078  0.84208099    -0.01300
Br2670     Br  0.71990482  0.54855730  0.94907623    -0.01300
Br2671     Br  0.70367668  0.65379863  0.81504411    -0.01300
Br2672     Br  0.64973183  0.62721196  0.86709762    -0.01300
C2673       C  0.87183752  0.80576049  0.89771113    -0.02400
C2674       C  0.89608045  0.81839456  0.91201860     0.07300
C2675       C  0.91875158  0.81764183  0.88276400    -0.02500
C2676       C  0.91698846  0.80539061  0.84006733    -0.02500
C2677       C  0.89422998  0.78957629  0.82839494     0.07400
C2678       C  0.87118946  0.79082548  0.85684242    -0.02700
Br2679     Br  0.83813223  0.77355568  0.83831327    -0.01300
Br2680     Br  0.83918131  0.80929526  0.93338216    -0.01300
Br2681     Br  0.94619091  0.81105610  0.79812198    -0.01300
Br2682     Br  0.95386162  0.82956842  0.90222035    -0.01300
C2683       C  0.91862044  0.81683791  0.61847600    -0.02400
C2684       C  0.89984064  0.81271045  0.58324654     0.07300
C2685       C  0.87655068  0.79690717  0.59281721    -0.02500
C2686       C  0.87413784  0.78449040  0.63477749    -0.02500
C2687       C  0.89694834  0.78265413  0.66263963     0.07400
C2688       C  0.91982435  0.79831390  0.65312336    -0.02700
Br2689     Br  0.95242575  0.79635983  0.68806903    -0.01300
Br2690     Br  0.93539338  0.85176776  0.63035957    -0.01300
Br2691     Br  0.83873206  0.77524787  0.65725141    -0.01300
Br2692     Br  0.84659214  0.79352479  0.55212567    -0.01300
C2693       C  0.80071154  0.88218553  0.59661113    -0.02400
C2694       C  0.81342532  0.90678420  0.58439808     0.07300
C2695       C  0.81359868  0.92841969  0.61597456    -0.02500
C2696       C  0.80059315  0.92581389  0.65815849    -0.02500
C2697       C  0.78507236  0.90241803  0.66793744     0.07400
C2698       C  0.78675090  0.88001448  0.63797287    -0.02700
Br2699     Br  0.77201352  0.84543129  0.65529683    -0.01300
Br2700     Br  0.80269459  0.85100183  0.55695527    -0.01300
Br2701     Br  0.80394989  0.95482407  0.70203830    -0.01300
Br2702     Br  0.82914503  0.96286300  0.60040444    -0.01300
C2703       C  0.79900147  0.88376410  0.84181217    -0.02400
C2704       C  0.77742267  0.90225129  0.83426121     0.07300
C2705       C  0.77293988  0.92385026  0.86493303    -0.02500
C2706       C  0.78612005  0.92369451  0.90646225    -0.02500
C2707       C  0.80864094  0.90573618  0.91318680     0.07400
C2708       C  0.81709160  0.88894487  0.87644281    -0.02700
Br2709     Br  0.85502199  0.88352829  0.85998988    -0.01300
Br2710     Br  0.80614331  0.85268621  0.80290231    -0.01300
Br2711     Br  0.77494286  0.95085400  0.95058822    -0.01300
Br2712     Br  0.75381396  0.95644099  0.84698290    -0.01300
C2713       C  0.71741285  0.87759271  0.86047930    -0.02400
C2714       C  0.71585558  0.89932149  0.82992810     0.07300
C2715       C  0.69716907  0.92087052  0.83929296    -0.02500
C2716       C  0.68343207  0.92254311  0.88116206    -0.02500
C2717       C  0.68676682  0.90192571  0.91368584     0.07400
C2718       C  0.70345446  0.87900608  0.90212006    -0.02700
Br2719     Br  0.70740328  0.84887368  0.94274816    -0.01300
Br2720     Br  0.73674724  0.84462015  0.84342146    -0.01300
Br2721     Br  0.66242075  0.95486754  0.89455534    -0.01300
Br2722     Br  0.69079862  0.94897815  0.79532213    -0.01300
C2723       C  0.71206302  0.92046129  0.59226635    -0.02400
C2724       C  0.69135711  0.90087451  0.58496175     0.07300
C2725       C  0.68551198  0.88273767  0.62065501    -0.02500
C2726       C  0.70455633  0.87893821  0.65455388    -0.02500
C2727       C  0.72359487  0.89944875  0.66323549     0.07400
C2728       C  0.72525731  0.92158066  0.63373542    -0.02700
Br2729     Br  0.73999230  0.95581248  0.65350618    -0.01300
Br2730     Br  0.72060866  0.94846960  0.54919944    -0.01300
Br2731     Br  0.70192629  0.84696810  0.69169008    -0.01300
Br2732     Br  0.64882354  0.87347312  0.63830876    -0.01300
C2733       C  0.62795118  0.79336356  0.64543414    -0.02400
C2734       C  0.60516406  0.79148310  0.67394360     0.07300
C2735       C  0.58194539  0.80748303  0.66410234    -0.02500
C2736       C  0.57964986  0.82058930  0.62218706    -0.02500
C2737       C  0.60105194  0.81882542  0.59024428     0.06600
C2738       C  0.62572808  0.80595080  0.60323189    -0.02700
Br2739     Br  0.65689381  0.80517848  0.56366702    -0.01300
Br2740     Br  0.66298142  0.78184948  0.66691628    -0.01300
Br2741     Br  0.54604172  0.83873647  0.60806534    -0.01300
Br2742     Br  0.55349595  0.81207096  0.70857344    -0.01300
C2743       C  0.62515286  0.79531407  0.90393296    -0.02400
C2744       C  0.59943673  0.80063710  0.92368236     0.07300
C2745       C  0.57656968  0.78787052  0.90455501    -0.02500
C2746       C  0.57811894  0.77770360  0.86070462    -0.02500
C2747       C  0.60338528  0.77580581  0.83853119     0.07400
C2748       C  0.62697651  0.78484763  0.86018055    -0.02700
Br2749     Br  0.66118042  0.78669133  0.82851634    -0.01300
Br2750     Br  0.65777591  0.79778525  0.93885605    -0.01300
Br2751     Br  0.54490022  0.77113303  0.82888692    -0.01300
Br2752     Br  0.54468215  0.77953982  0.93994531    -0.01300
loop_ 
_geom_bond_atom_site_label_1 
_geom_bond_atom_site_label_2 
_geom_bond_distance 
_geom_bond_site_symmetry_2 
_ccdc_geom_bond_type 
O1           C11   1.271       .  A
O1        Cu1385   1.963   1_455  S
O2          C356   1.281   1_554  A
O2           Cu9   1.999       .  S
O3           C13   1.275   1_554  A
O3        Cu1385   2.014   1_455  S
O4          C358   1.277   1_554  A
O4           Cu9   1.993       .  S
O5           C14   1.274       .  A
O5        Cu1386   1.980       .  S
O6          C357   1.282       .  A
O6          Cu10   2.016   1_455  S
O7           C12   1.274       .  A
O7        Cu1386   2.010       .  S
O8          C355   1.276       .  A
O8          Cu10   1.980   1_455  S
Cu9        O1377   1.963       .  S
Cu9        O1379   2.014       .  S
Cu9       Cu1730   2.375   1_554  S
Cu10       O1381   1.980       .  S
Cu10       O1383   2.010       .  S
Cu10      Cu1729   2.375       .  S
C11         O352   1.276   1_554  A
C11         C399   1.438       .  S
C12         O346   1.281       .  A
C12         C103   1.478       .  S
C13         O350   1.282       .  A
C13          C59   1.485       .  S
C14         O348   1.277       .  A
C14         C369   1.449       .  S
O15          C25   1.274   1_554  A
O15        Cu711   1.976       .  S
O16         C370   1.281   1_554  A
O16         Cu23   2.008       .  S
O17          C27   1.274   1_554  A
O17        Cu711   2.010       .  S
O18         C372   1.277   1_554  A
O18         Cu23   1.996       .  S
O19          C28   1.274       .  A
O19         Cu24   1.977       .  S
O20         C371   1.281       .  A
O20        Cu712   2.002       .  S
O21          C26   1.276       .  A
O21         Cu24   2.021       .  S
O22         C369   1.277       .  A
O22        Cu712   1.997       .  S
Cu23        O703   1.976   1_545  S
Cu23        O705   2.010   1_545  S
Cu23       Cu368   2.374   1_554  S
Cu24        O708   2.002   1_545  S
Cu24        O710   1.997   1_545  S
Cu24       Cu367   2.374       .  S
C25         O366   1.277       .  A
C25         C358   1.449       .  S
C26         O360   1.281       .  A
C26         C155   1.484       .  S
C27         O364   1.281       .  A
C27          C91   1.480       .  S
C28         O362   1.277       .  A
C28         C384   1.449       .  S
O29         C383   1.281       .  A
O29         Cu37   2.022   1_455  S
O30          C40   1.274   1_554  A
O30       Cu1413   1.981       .  S
O31         C385   1.277       .  A
O31         Cu37   1.993   1_455  S
O32          C42   1.276   1_554  A
O32       Cu1413   2.016       .  S
O33         C386   1.279       .  A
O33         Cu38   1.991       .  S
O34          C41   1.271       .  A
O34       Cu1414   1.957       .  S
O35         C384   1.277       .  A
O35         Cu38   1.993       .  S
O36          C39   1.276       .  A
O36       Cu1414   2.019       .  S
Cu37       O1406   1.981       .  S
Cu37       O1408   2.016       .  S
Cu37      Cu1758   2.375   1_654  S
Cu38       O1410   1.957       .  S
Cu38       O1412   2.019       .  S
Cu38      Cu1757   2.375       .  S
C39         O373   1.281       .  A
C39         C127   1.488       .  S
C40         O379   1.277       .  A
C40         C372   1.449       .  S
C41         O375   1.277       .  A
C41         C398   1.441       .  S
C42         O377   1.279       .  A
C42         C167   1.478       .  S
O43         C397   1.282       .  A
O43        Cu739   2.007       .  S
O44          C54   1.272       .  A
O44         Cu51   1.970       .  S
O45         C399   1.277       .  A
O45        Cu739   1.990       .  S
O46          C56   1.276       .  A
O46         Cu51   2.018       .  S
O47         C400   1.280       .  A
O47         Cu52   1.989       .  S
O48          C55   1.271       .  A
O48        Cu740   1.952       .  S
O49         C398   1.276       .  A
O49         Cu52   1.982       .  S
O50          C53   1.274       .  A
O50        Cu740   2.012       .  S
Cu51        O731   2.007   1_545  S
Cu51        O733   1.990   1_545  S
Cu51       Cu396   2.376   1_554  S
Cu52        O736   1.952   1_545  S
Cu52        O738   2.012   1_545  S
Cu52       Cu395   2.376       .  S
C53         O387   1.282       .  A
C53          C71   1.485       .  S
C54         O393   1.276   1_554  A
C54         C385   1.441       .  S
C55         O389   1.277       .  A
C55         C355   1.438       .  S
C56         O391   1.280   1_554  A
C56         C115   1.478   1_554  S
C57          C58   1.531       .  S
C57          C61   1.548       .  S
C57         C407   1.533       .  S
C57         C336   1.533       .  S
C58          H65   1.085       .  S
C58         C403   1.356       .  D
C59          C60   1.560   1_556  S
C59         C402   1.356       .  D
C60          C64   1.559       .  S
C60          C62   1.565   1_554  S
C60          H66   1.110       .  S
C61          H67   1.085       .  S
C61         C406   1.361       .  D
C62         C405   1.361       .  D
C62         C418   1.499   1_556  S
C63         C401   1.533   1_554  S
C63          H68   1.087       .  S
C63          C64   1.365       .  D
C64         C329   1.513       .  S
C69          C70   1.520       .  S
C69          C73   1.533       .  S
C69         C419   1.542   1_554  S
C69         C316   1.536       .  S
C70          H77   1.088       .  S
C70         C415   1.354       .  D
C71          C72   1.563       .  S
C71         C414   1.354       .  D
C72          C76   1.566       .  S
C72          C74   1.564       .  S
C72          H78   1.110       .  S
C73          H79   1.075       .  S
C73         C418   1.354       .  D
C74         C417   1.354       .  D
C74         C406   1.499       .  S
C75         C413   1.542       .  S
C75          H80   1.086       .  S
C75          C76   1.374       .  D
C76         C309   1.522       .  S
C81         C319   1.483       .  S
C81          C82   1.420       .  A
C81          C86   1.414       .  A
C82         C289   1.513       .  S
C82          C83   1.399       .  A
C83          C84   1.413       .  A
C83          H88   1.084       .  S
C84         C296   1.481       .  S
C84          C85   1.421       .  A
C85         C306   1.516       .  S
C85          C86   1.401       .  A
C86          H87   1.084       .  S
C89          C90   1.521       .  S
C89          C93   1.532       .  S
C89         C439   1.542       .  S
C89         C299   1.529       .  S
C90          H97   1.087       .  S
C90         C435   1.354       .  D
C91          C92   1.557   1_556  S
C91         C434   1.354       .  D
C92          C96   1.559       .  S
C92          C94   1.560   1_554  S
C92          H98   1.110       .  S
C93          H99   1.080       .  S
C93         C438   1.352       .  D
C94         C437   1.352       .  D
C94         C450   1.490   1_556  S
C95         C433   1.542   1_554  S
C95         H100   1.086       .  S
C95          C96   1.373       .  D
C96         C286   1.510       .  S
C101        C102   1.528       .  S
C101        C105   1.533       .  S
C101        C451   1.542   1_554  S
C101        C276   1.521       .  S
C102        H109   1.085       .  S
C102        C447   1.347   1_554  D
C103        C104   1.554       .  S
C103        C446   1.347       .  D
C104        C108   1.563       .  S
C104        C106   1.560       .  S
C104        H110   1.111       .  S
C105        H111   1.087       .  S
C105        C450   1.354       .  D
C106        C449   1.354       .  D
C106        C438   1.490       .  S
C107        C445   1.542       .  S
C107        H112   1.086       .  S
C107        C108   1.371       .  D
C108        C266   1.508       .  S
C113        C114   1.519       .  S
C113        C117   1.528       .  S
C113        C463   1.549       .  S
C113        C256   1.536       .  S
C114        H121   1.088       .  S
C114        C459   1.351       .  D
C115        C116   1.554   1_556  S
C115        C458   1.351       .  D
C116        C120   1.568       .  S
C116        C118   1.580       .  S
C116        H122   1.108       .  S
C117        H123   1.078       .  S
C117        C462   1.347       .  D
C118        C461   1.347   1_554  D
C118        C474   1.510       .  S
C119        C457   1.549   1_554  S
C119        H124   1.086       .  S
C119        C120   1.383       .  D
C120        C246   1.528       .  S
C125        C126   1.540       .  S
C125        C129   1.540       .  S
C125        C475   1.527   1_554  S
C125        C236   1.537       .  S
C126        H133   1.086       .  S
C126        C471   1.361       .  D
C127        C128   1.556       .  S
C127        C470   1.361       .  D
C128        C132   1.568       .  S
C128        C130   1.571       .  S
C128        H134   1.110       .  S
C129        H135   1.074       .  S
C129        C474   1.355       .  D
C130        C473   1.355       .  D
C130        C462   1.510       .  S
C131        C469   1.527       .  S
C131        H136   1.087       .  S
C131        C132   1.363       .  D
C132        C226   1.512       .  S
C137        C229   1.512       .  S
C137        C138   1.422       .  A
C137        C142   1.403       .  A
C138        C339   1.476       .  S
C138        C139   1.409       .  A
C139        C140   1.401       .  A
C139        H144   1.084       .  S
C140        C326   1.509       .  S
C140        C141   1.422       .  A
C141        C239   1.480       .  S
C141        C142   1.412       .  A
C142        H143   1.084       .  S
C145        C206   1.508       .  S
C145        C146   1.412       .  A
C145        C150   1.395       .  A
C146        C259   1.472       .  S
C146        C147   1.412       .  A
C147        C148   1.406       .  A
C147        H152   1.084       .  S
C148        C249   1.521       .  S
C148        C149   1.426       .  A
C149        C216   1.480       .  S
C149        C150   1.416       .  A
C150        H151   1.084       .  S
C153        C154   1.535       .  S
C153        C157   1.528       .  S
C153        C503   1.542       .  S
C153        C219   1.523       .  S
C154        H161   1.087       .  S
C154        C499   1.354       .  D
C155        C156   1.555       .  S
C155        C498   1.354       .  D
C156        C160   1.559       .  S
C156        C158   1.563       .  S
C156        H162   1.110       .  S
C157        H163   1.083       .  S
C157        C502   1.351       .  D
C158        C501   1.351       .  D
C158        C514   1.491       .  S
C159        C497   1.542       .  S
C159        H164   1.084       .  S
C159        C160   1.368       .  D
C160        C209   1.505       .  S
C165        C166   1.525       .  S
C165        C169   1.530       .  S
C165        C515   1.543       .  S
C165        C199   1.528       .  S
C166        H173   1.088       .  S
C166        C511   1.354       .  D
C167        C168   1.550   1_556  S
C167        C510   1.354       .  D
C168        C172   1.555       .  S
C168        C170   1.563   1_554  S
C168        H174   1.110       .  S
C169        H175   1.077       .  S
C169        C514   1.352       .  D
C170        C513   1.352       .  D
C170        C502   1.491   1_556  S
C171        C509   1.543       .  S
C171        H176   1.086       .  S
C171        C172   1.368   1_556  D
C172        C189   1.498       .  S
C177        C186   1.506       .  S
C177        C178   1.414       .  A
C177        C182   1.395       .  A
C178        C279   1.465       .  S
C178        C179   1.410       .  A
C179        C180   1.398       .  A
C179        H184   1.085       .  S
C180        C269   1.512       .  S
C180        C181   1.422       .  A
C181        C196   1.473       .  S
C181        C182   1.414       .  A
C182        H183   1.084       .  S
C185        C186   1.413       .  A
C185        C190   1.417       .  A
C185       Br192   1.925       .  S
C186        C187   1.412       .  A
C187        C188   1.410       .  A
C187       Br194   1.925       .  S
C188        C189   1.410       .  A
C188       Br193   1.925       .  S
C189        C190   1.413       .  A
C190       Br191   1.928       .  S
C195        C196   1.403       .  A
C195        C200   1.400       .  A
C195       Br202   1.927       .  S
C196        C197   1.406       .  A
C197        C198   1.395       .  A
C197       Br204   1.933       .  S
C198        C199   1.426       .  A
C198       Br203   1.941       .  S
C199        C200   1.426       .  A
C200       Br201   1.940       .  S
C205        C206   1.412       .  A
C205        C210   1.418       .  A
C205       Br212   1.924       .  S
C206        C207   1.412       .  A
C207        C208   1.410       .  A
C207       Br214   1.924       .  S
C208        C209   1.412       .  A
C208       Br213   1.925       .  S
C209        C210   1.417       .  A
C210       Br211   1.928       .  S
C215        C216   1.412       .  A
C215        C220   1.412       .  A
C215       Br222   1.929       .  S
C216        C217   1.410       .  A
C217        C218   1.386       .  A
C217       Br224   1.925       .  S
C218        C219   1.413       .  A
C218       Br223   1.944       .  S
C219        C220   1.421       .  A
C220       Br221   1.931       .  S
C225        C226   1.417       .  A
C225        C230   1.414       .  A
C225       Br232   1.929       .  S
C226        C227   1.417       .  A
C227        C228   1.420       .  A
C227       Br234   1.920       .  S
C228        C229   1.413       .  A
C228       Br233   1.930       .  S
C229        C230   1.408       .  A
C230       Br231   1.923       .  S
C235        C236   1.414       .  A
C235        C240   1.400       .  A
C235       Br242   1.933       .  S
C236        C237   1.417       .  A
C237        C238   1.406       .  A
C237       Br244   1.935       .  S
C238        C239   1.410       .  A
C238       Br243   1.926       .  S
C239        C240   1.407       .  A
C240       Br241   1.930       .  S
C245        C246   1.414       .  A
C245        C250   1.416       .  A
C245       Br252   1.916       .  S
C246        C247   1.419       .  A
C247        C248   1.421       .  A
C247       Br254   1.921       .  S
C248        C249   1.413       .  A
C248       Br253   1.927       .  S
C249        C250   1.419       .  A
C250       Br251   1.925       .  S
C255        C256   1.426       .  A
C255        C260   1.404       .  A
C255       Br262   1.923       .  S
C256        C257   1.424       .  A
C257        C258   1.391       .  A
C257       Br264   1.941       .  S
C258        C259   1.401       .  A
C258       Br263   1.920       .  S
C259        C260   1.401       .  A
C260       Br261   1.925       .  S
C265        C266   1.418       .  A
C265        C270   1.419       .  A
C265       Br272   1.926       .  S
C266        C267   1.412       .  A
C267        C268   1.409       .  A
C267       Br274   1.923       .  S
C268        C269   1.414       .  A
C268       Br273   1.924       .  S
C269        C270   1.412       .  A
C270       Br271   1.926       .  S
C275        C276   1.421       .  A
C275        C280   1.385       .  A
C275       Br282   1.942       .  S
C276        C277   1.420       .  A
C277        C278   1.404       .  A
C277       Br284   1.925       .  S
C278        C279   1.405       .  A
C278       Br283   1.923       .  S
C279        C280   1.400       .  A
C280       Br281   1.922       .  S
C285        C286   1.416       .  A
C285        C290   1.415       .  A
C285       Br292   1.928       .  S
C286        C287   1.414       .  A
C287        C288   1.417       .  A
C287       Br294   1.923       .  S
C288        C289   1.418       .  A
C288       Br293   1.936       .  S
C289        C290   1.413       .  A
C290       Br291   1.927       .  S
C295        C296   1.408       .  A
C295        C300   1.394       .  A
C295       Br302   1.936       .  S
C296        C297   1.409       .  A
C297        C298   1.404       .  A
C297       Br304   1.927       .  S
C298        C299   1.423       .  A
C298       Br303   1.938       .  S
C299        C300   1.423       .  A
C300       Br301   1.940       .  S
C305        C306   1.411       .  A
C305        C310   1.417       .  A
C305       Br312   1.929       .  S
C306        C307   1.417       .  A
C307        C308   1.419       .  A
C307       Br314   1.937       .  S
C308        C309   1.418       .  A
C308       Br313   1.919       .  S
C309        C310   1.422       .  A
C310       Br311   1.930       .  S
C315        C316   1.426       .  A
C315        C320   1.404       .  A
C315       Br322   1.939       .  S
C316        C317   1.425       .  A
C317        C318   1.397       .  A
C317       Br324   1.937       .  S
C318        C319   1.407       .  A
C318       Br323   1.935       .  S
C319        C320   1.408       .  A
C320       Br321   1.927       .  S
C325        C326   1.407       .  A
C325        C330   1.413       .  A
C325       Br332   1.923       .  S
C326        C327   1.412       .  A
C327        C328   1.418       .  A
C327       Br334   1.932       .  S
C328        C329   1.417       .  A
C328       Br333   1.919       .  S
C329        C330   1.419       .  A
C330       Br331   1.929       .  S
C335        C336   1.412       .  A
C335        C340   1.402       .  A
C335       Br342   1.925       .  S
C336        C337   1.416       .  A
C337        C338   1.399       .  A
C337       Br344   1.935       .  S
C338        C339   1.406       .  A
C338       Br343   1.926       .  S
C339        C340   1.407       .  A
C340       Br341   1.928       .  S
O345        C355   1.271       .  A
O345      Cu1729   1.963   1_455  S
O346       Cu353   1.999       .  S
O347        C357   1.275       .  A
O347      Cu1729   2.014   1_455  S
O348       Cu353   1.993       .  S
O349        C358   1.274       .  A
O349      Cu1730   1.980       .  S
O350       Cu354   2.016   1_455  S
O351        C356   1.274       .  A
O351      Cu1730   2.010       .  S
O352       Cu354   1.980   1_455  S
Cu353      O1721   1.963       .  S
Cu353      O1723   2.014       .  S
Cu353     Cu1386   2.375       .  S
Cu354      O1725   1.980       .  S
Cu354      O1727   2.010       .  S
Cu354     Cu1385   2.375   1_556  S
C356        C447   1.478       .  S
C357        C403   1.485       .  S
O359        C369   1.274       .  A
O359      Cu1055   1.976       .  S
O360       Cu367   2.008       .  S
O361        C371   1.274       .  A
O361      Cu1055   2.010       .  S
O362       Cu367   1.996       .  S
O363        C372   1.274       .  A
O363       Cu368   1.977       .  S
O364      Cu1056   2.002       .  S
O365        C370   1.276       .  A
O365       Cu368   2.021       .  S
O366      Cu1056   1.997       .  S
Cu367      O1047   1.976   1_545  S
Cu367      O1049   2.010   1_545  S
Cu368      O1052   2.002   1_545  S
Cu368      O1054   1.997   1_545  S
C370        C499   1.484   1_556  S
C371        C435   1.480       .  S
O373       Cu381   2.022   1_455  S
O374        C384   1.274       .  A
O374      Cu1757   1.981       .  S
O375       Cu381   1.993   1_455  S
O376        C386   1.276       .  A
O376      Cu1757   2.016       .  S
O377       Cu382   1.991       .  S
O378        C385   1.271   1_556  A
O378      Cu1758   1.957       .  S
O379       Cu382   1.993       .  S
O380        C383   1.276   1_556  A
O380      Cu1758   2.019       .  S
Cu381      O1750   1.981       .  S
Cu381      O1752   2.016       .  S
Cu381     Cu1414   2.375   1_655  S
Cu382      O1754   1.957       .  S
Cu382      O1756   2.019       .  S
Cu382     Cu1413   2.375   1_556  S
C383        C471   1.488       .  S
C386        C511   1.478       .  S
O387      Cu1083   2.007       .  S
O388        C398   1.272       .  A
O388       Cu395   1.970       .  S
O389      Cu1083   1.990       .  S
O390        C400   1.276       .  A
O390       Cu395   2.018       .  S
O391       Cu396   1.989       .  S
O392        C399   1.271   1_556  A
O392      Cu1084   1.952       .  S
O393       Cu396   1.982       .  S
O394        C397   1.274   1_556  A
O394      Cu1084   2.012       .  S
Cu395      O1075   2.007   1_545  S
Cu395      O1077   1.990   1_545  S
Cu396      O1080   1.952   1_545  S
Cu396      O1082   2.012   1_545  S
C397        C415   1.485       .  S
C400        C459   1.478       .  S
C401        C402   1.531       .  S
C401        C405   1.548       .  S
C401        C680   1.533       .  S
C402        H409   1.085       .  S
C403        C404   1.560       .  S
C404        C408   1.559       .  S
C404        C406   1.565       .  S
C404        H410   1.110       .  S
C405        H411   1.085       .  S
C407        H412   1.087       .  S
C407        C408   1.365       .  D
C408        C673   1.513       .  S
C413        C414   1.520       .  S
C413        C417   1.533       .  S
C413        C660   1.536       .  S
C414        H421   1.088       .  S
C415        C416   1.563   1_554  S
C416        C420   1.566       .  S
C416        C418   1.564   1_556  S
C416        H422   1.110       .  S
C417        H423   1.075       .  S
C419        H424   1.086       .  S
C419        C420   1.374       .  D
C420        C653   1.522       .  S
C425        C663   1.483       .  S
C425        C426   1.420       .  A
C425        C430   1.414       .  A
C426        C633   1.513       .  S
C426        C427   1.399       .  A
C427        C428   1.413       .  A
C427        H432   1.084       .  S
C428        C640   1.481       .  S
C428        C429   1.421       .  A
C429        C650   1.516       .  S
C429        C430   1.401       .  A
C430        H431   1.084       .  S
C433        C434   1.521       .  S
C433        C437   1.532       .  S
C433        C643   1.529       .  S
C434        H441   1.087       .  S
C435        C436   1.557       .  S
C436        C440   1.559       .  S
C436        C438   1.560       .  S
C436        H442   1.110       .  S
C437        H443   1.080       .  S
C439        H444   1.086       .  S
C439        C440   1.373       .  D
C440        C630   1.510       .  S
C445        C446   1.528       .  S
C445        C449   1.533       .  S
C445        C620   1.521       .  S
C446        H453   1.085       .  S
C447        C448   1.554       .  S
C448        C452   1.563       .  S
C448        C450   1.560   1_556  S
C448        H454   1.111       .  S
C449        H455   1.087       .  S
C451        H456   1.086       .  S
C451        C452   1.371       .  D
C452        C610   1.508       .  S
C457        C458   1.519       .  S
C457        C461   1.528       .  S
C457        C600   1.536       .  S
C458        H465   1.088       .  S
C459        C460   1.554       .  S
C460        C464   1.568       .  S
C460        C462   1.580       .  S
C460        H466   1.108       .  S
C461        H467   1.078       .  S
C463        H468   1.086       .  S
C463        C464   1.383       .  D
C464        C590   1.528       .  S
C469        C470   1.540       .  S
C469        C473   1.540       .  S
C469        C580   1.537       .  S
C470        H477   1.086       .  S
C471        C472   1.556   1_554  S
C472        C476   1.568       .  S
C472        C474   1.571   1_556  S
C472        H478   1.110       .  S
C473        H479   1.074       .  S
C475        H480   1.087       .  S
C475        C476   1.363       .  D
C476        C570   1.512       .  S
C481        C573   1.512       .  S
C481        C482   1.422       .  A
C481        C486   1.403       .  A
C482        C683   1.476       .  S
C482        C483   1.409       .  A
C483        C484   1.401       .  A
C483        H488   1.084       .  S
C484        C670   1.509       .  S
C484        C485   1.422       .  A
C485        C583   1.480       .  S
C485        C486   1.412       .  A
C486        H487   1.084       .  S
C489        C550   1.508       .  S
C489        C490   1.412       .  A
C489        C494   1.395       .  A
C490        C603   1.472       .  S
C490        C491   1.412       .  A
C491        C492   1.406       .  A
C491        H496   1.084       .  S
C492        C593   1.521       .  S
C492        C493   1.426       .  A
C493        C560   1.480       .  S
C493        C494   1.416       .  A
C494        H495   1.084       .  S
C497        C498   1.535       .  S
C497        C501   1.528       .  S
C497        C563   1.523       .  S
C498        H505   1.087       .  S
C499        C500   1.555   1_554  S
C500        C504   1.559       .  S
C500        C502   1.563   1_556  S
C500        H506   1.110       .  S
C501        H507   1.083       .  S
C503        H508   1.084   1_554  S
C503        C504   1.368   1_554  D
C504        C553   1.505       .  S
C509        C510   1.525       .  S
C509        C513   1.530       .  S
C509        C543   1.528       .  S
C510        H517   1.088       .  S
C511        C512   1.550       .  S
C512        C516   1.555       .  S
C512        C514   1.563       .  S
C512        H518   1.110       .  S
C513        H519   1.077       .  S
C515        H520   1.086       .  S
C515        C516   1.368       .  D
C516        C533   1.498       .  S
C521        C530   1.506       .  S
C521        C522   1.414       .  A
C521        C526   1.395       .  A
C522        C623   1.465       .  S
C522        C523   1.410       .  A
C523        C524   1.398       .  A
C523        H528   1.085       .  S
C524        C613   1.512       .  S
C524        C525   1.422       .  A
C525        C540   1.473       .  S
C525        C526   1.414       .  A
C526        H527   1.084       .  S
C529        C530   1.413       .  A
C529        C534   1.417       .  A
C529       Br536   1.925       .  S
C530        C531   1.412       .  A
C531        C532   1.410       .  A
C531       Br538   1.925       .  S
C532        C533   1.410       .  A
C532       Br537   1.925       .  S
C533        C534   1.413       .  A
C534       Br535   1.928       .  S
C539        C540   1.403       .  A
C539        C544   1.400       .  A
C539       Br546   1.927       .  S
C540        C541   1.406       .  A
C541        C542   1.395       .  A
C541       Br548   1.933       .  S
C542        C543   1.426       .  A
C542       Br547   1.941       .  S
C543        C544   1.426       .  A
C544       Br545   1.940       .  S
C549        C550   1.412       .  A
C549        C554   1.418       .  A
C549       Br556   1.924       .  S
C550        C551   1.412       .  A
C551        C552   1.410       .  A
C551       Br558   1.924       .  S
C552        C553   1.412       .  A
C552       Br557   1.925       .  S
C553        C554   1.417       .  A
C554       Br555   1.928       .  S
C559        C560   1.412       .  A
C559        C564   1.412       .  A
C559       Br566   1.929       .  S
C560        C561   1.410       .  A
C561        C562   1.386       .  A
C561       Br568   1.925       .  S
C562        C563   1.413       .  A
C562       Br567   1.944       .  S
C563        C564   1.421       .  A
C564       Br565   1.931       .  S
C569        C570   1.417       .  A
C569        C574   1.414       .  A
C569       Br576   1.929       .  S
C570        C571   1.417       .  A
C571        C572   1.420       .  A
C571       Br578   1.920       .  S
C572        C573   1.413       .  A
C572       Br577   1.930       .  S
C573        C574   1.408       .  A
C574       Br575   1.923       .  S
C579        C580   1.414       .  A
C579        C584   1.400       .  A
C579       Br586   1.933       .  S
C580        C581   1.417       .  A
C581        C582   1.406       .  A
C581       Br588   1.935       .  S
C582        C583   1.410       .  A
C582       Br587   1.926       .  S
C583        C584   1.407       .  A
C584       Br585   1.930       .  S
C589        C590   1.414       .  A
C589        C594   1.416       .  A
C589       Br596   1.916       .  S
C590        C591   1.419       .  A
C591        C592   1.421       .  A
C591       Br598   1.921       .  S
C592        C593   1.413       .  A
C592       Br597   1.927       .  S
C593        C594   1.419       .  A
C594       Br595   1.925       .  S
C599        C600   1.426       .  A
C599        C604   1.404       .  A
C599       Br606   1.923       .  S
C600        C601   1.424       .  A
C601        C602   1.391       .  A
C601       Br608   1.941       .  S
C602        C603   1.401       .  A
C602       Br607   1.920       .  S
C603        C604   1.401       .  A
C604       Br605   1.925       .  S
C609        C610   1.418       .  A
C609        C614   1.419       .  A
C609       Br616   1.926       .  S
C610        C611   1.412       .  A
C611        C612   1.409       .  A
C611       Br618   1.923       .  S
C612        C613   1.414       .  A
C612       Br617   1.924       .  S
C613        C614   1.412       .  A
C614       Br615   1.926       .  S
C619        C620   1.421       .  A
C619        C624   1.385       .  A
C619       Br626   1.942       .  S
C620        C621   1.420       .  A
C621        C622   1.404       .  A
C621       Br628   1.925       .  S
C622        C623   1.405       .  A
C622       Br627   1.923       .  S
C623        C624   1.400       .  A
C624       Br625   1.922       .  S
C629        C630   1.416       .  A
C629        C634   1.415       .  A
C629       Br636   1.928       .  S
C630        C631   1.414       .  A
C631        C632   1.417       .  A
C631       Br638   1.923       .  S
C632        C633   1.418       .  A
C632       Br637   1.936       .  S
C633        C634   1.413       .  A
C634       Br635   1.927       .  S
C639        C640   1.408       .  A
C639        C644   1.394       .  A
C639       Br646   1.936       .  S
C640        C641   1.409       .  A
C641        C642   1.404       .  A
C641       Br648   1.927       .  S
C642        C643   1.423       .  A
C642       Br647   1.938       .  S
C643        C644   1.423       .  A
C644       Br645   1.940       .  S
C649        C650   1.411       .  A
C649        C654   1.417       .  A
C649       Br656   1.929       .  S
C650        C651   1.417       .  A
C651        C652   1.419       .  A
C651       Br658   1.937       .  S
C652        C653   1.418       .  A
C652       Br657   1.919       .  S
C653        C654   1.422       .  A
C654       Br655   1.930       .  S
C659        C660   1.426       .  A
C659        C664   1.404       .  A
C659       Br666   1.939       .  S
C660        C661   1.425       .  A
C661        C662   1.397       .  A
C661       Br668   1.937       .  S
C662        C663   1.407       .  A
C662       Br667   1.935       .  S
C663        C664   1.408       .  A
C664       Br665   1.927       .  S
C669        C670   1.407       .  A
C669        C674   1.413       .  A
C669       Br676   1.923       .  S
C670        C671   1.412       .  A
C671        C672   1.418       .  A
C671       Br678   1.932       .  S
C672        C673   1.417       .  A
C672       Br677   1.919       .  S
C673        C674   1.419       .  A
C674       Br675   1.929       .  S
C679        C680   1.412       .  A
C679        C684   1.402       .  A
C679       Br686   1.925       .  S
C680        C681   1.416       .  A
C681        C682   1.399       .  A
C681       Br688   1.935       .  S
C682        C683   1.406       .  A
C682       Br687   1.926       .  S
C683        C684   1.407       .  A
C684       Br685   1.928       .  S
O689        C699   1.271       .  A
O689      Cu2073   1.963   1_455  S
O690       C1044   1.281   1_554  A
O690       Cu697   1.999       .  S
O691        C701   1.275   1_554  A
O691      Cu2073   2.014   1_455  S
O692       C1046   1.277   1_554  A
O692       Cu697   1.993       .  S
O693        C702   1.274       .  A
O693      Cu2074   1.980       .  S
O694       C1045   1.282       .  A
O694       Cu698   2.016   1_455  S
O695        C700   1.274       .  A
O695      Cu2074   2.010       .  S
O696       C1043   1.276       .  A
O696       Cu698   1.980   1_455  S
Cu697      O2065   1.963       .  S
Cu697      O2067   2.014       .  S
Cu697     Cu2418   2.375   1_554  S
Cu698      O2069   1.980       .  S
Cu698      O2071   2.010       .  S
Cu698     Cu2417   2.375       .  S
C699       O1040   1.276   1_554  A
C699       C1087   1.438       .  S
C700       O1034   1.281       .  A
C700        C791   1.478       .  S
C701       O1038   1.282       .  A
C701        C747   1.485       .  S
C702       O1036   1.277       .  A
C702       C1057   1.449       .  S
O703        C713   1.274   1_554  A
O704       C1058   1.281   1_554  A
O704       Cu711   2.008       .  S
O705        C715   1.274   1_554  A
O706       C1060   1.277   1_554  A
O706       Cu711   1.996       .  S
O707        C716   1.274       .  A
O707       Cu712   1.977       .  S
O708       C1059   1.281       .  A
O709        C714   1.276       .  A
O709       Cu712   2.021       .  S
O710       C1057   1.277       .  A
Cu711     Cu1056   2.374   1_554  S
Cu712     Cu1055   2.374       .  S
C713       O1054   1.277       .  A
C713       C1046   1.449       .  S
C714       O1048   1.281       .  A
C714        C843   1.484       .  S
C715       O1052   1.281       .  A
C715        C779   1.480       .  S
C716       O1050   1.277       .  A
C716       C1072   1.449       .  S
O717       C1071   1.281       .  A
O717       Cu725   2.022   1_455  S
O718        C728   1.274   1_554  A
O718      Cu2101   1.981       .  S
O719       C1073   1.277       .  A
O719       Cu725   1.993   1_455  S
O720        C730   1.276   1_554  A
O720      Cu2101   2.016       .  S
O721       C1074   1.279       .  A
O721       Cu726   1.991       .  S
O722        C729   1.271       .  A
O722      Cu2102   1.957       .  S
O723       C1072   1.277       .  A
O723       Cu726   1.993       .  S
O724        C727   1.276       .  A
O724      Cu2102   2.019       .  S
Cu725      O2094   1.981       .  S
Cu725      O2096   2.016       .  S
Cu725     Cu2446   2.375   1_654  S
Cu726      O2098   1.957       .  S
Cu726      O2100   2.019       .  S
Cu726     Cu2445   2.375       .  S
C727       O1061   1.281       .  A
C727        C815   1.488       .  S
C728       O1067   1.277       .  A
C728       C1060   1.449       .  S
C729       O1063   1.277       .  A
C729       C1086   1.441       .  S
C730       O1065   1.279       .  A
C730        C855   1.478       .  S
O731       C1085   1.282       .  A
O732        C742   1.272       .  A
O732       Cu739   1.970       .  S
O733       C1087   1.277       .  A
O734        C744   1.276       .  A
O734       Cu739   2.018       .  S
O735       C1088   1.280       .  A
O735       Cu740   1.989       .  S
O736        C743   1.271       .  A
O737       C1086   1.276       .  A
O737       Cu740   1.982       .  S
O738        C741   1.274       .  A
Cu739     Cu1084   2.376   1_554  S
Cu740     Cu1083   2.376       .  S
C741       O1075   1.282       .  A
C741        C759   1.485       .  S
C742       O1081   1.276   1_554  A
C742       C1073   1.441       .  S
C743       O1077   1.277       .  A
C743       C1043   1.438       .  S
C744       O1079   1.280   1_554  A
C744        C803   1.478   1_554  S
C745        C746   1.531       .  S
C745       C1095   1.533       .  S
C745        C749   1.548       .  S
C745       C1024   1.533       .  S
C746        H753   1.085       .  S
C746       C1091   1.356       .  D
C747        C748   1.560   1_556  S
C747       C1090   1.356       .  D
C748        C752   1.559       .  S
C748        C750   1.565   1_554  S
C748        H754   1.110       .  S
C749        H755   1.085       .  S
C749       C1094   1.361       .  D
C750       C1093   1.361       .  D
C750       C1106   1.499   1_556  S
C751       C1089   1.533   1_554  S
C751        H756   1.087       .  S
C751        C752   1.365       .  D
C752       C1017   1.513       .  S
C757        C758   1.520       .  S
C757       C1107   1.542   1_554  S
C757        C761   1.533       .  S
C757       C1004   1.536       .  S
C758        H765   1.088       .  S
C758       C1103   1.354       .  D
C759        C760   1.563       .  S
C759       C1102   1.354       .  D
C760        C764   1.566       .  S
C760        C762   1.564       .  S
C760        H766   1.110       .  S
C761        H767   1.075       .  S
C761       C1106   1.354       .  D
C762       C1105   1.354       .  D
C762       C1094   1.499       .  S
C763       C1101   1.542       .  S
C763        H768   1.086       .  S
C763        C764   1.374       .  D
C764        C997   1.522       .  S
C769       C1007   1.483       .  S
C769        C770   1.420       .  A
C769        C774   1.414       .  A
C770        C977   1.513       .  S
C770        C771   1.399       .  A
C771        C772   1.413       .  A
C771        H776   1.084       .  S
C772        C984   1.481       .  S
C772        C773   1.421       .  A
C773        C994   1.516       .  S
C773        C774   1.401       .  A
C774        H775   1.084       .  S
C777        C778   1.521       .  S
C777       C1127   1.542       .  S
C777        C781   1.532       .  S
C777        C987   1.529       .  S
C778        H785   1.087       .  S
C778       C1123   1.354       .  D
C779        C780   1.557   1_556  S
C779       C1122   1.354       .  D
C780        C784   1.559       .  S
C780        C782   1.560   1_554  S
C780        H786   1.110       .  S
C781        H787   1.080       .  S
C781       C1126   1.352       .  D
C782       C1125   1.352       .  D
C782       C1138   1.490   1_556  S
C783       C1121   1.542   1_554  S
C783        H788   1.086       .  S
C783        C784   1.373       .  D
C784        C974   1.510       .  S
C789        C790   1.528       .  S
C789       C1139   1.542   1_554  S
C789        C793   1.533       .  S
C789        C964   1.521       .  S
C790        H797   1.085       .  S
C790       C1135   1.347   1_554  D
C791        C792   1.554       .  S
C791       C1134   1.347       .  D
C792        C796   1.563       .  S
C792        C794   1.560       .  S
C792        H798   1.111       .  S
C793        H799   1.087       .  S
C793       C1138   1.354       .  D
C794       C1137   1.354       .  D
C794       C1126   1.490       .  S
C795       C1133   1.542       .  S
C795        H800   1.086       .  S
C795        C796   1.371       .  D
C796        C954   1.508       .  S
C801        C802   1.519       .  S
C801       C1151   1.549       .  S
C801        C805   1.528       .  S
C801        C944   1.536       .  S
C802        H809   1.088       .  S
C802       C1147   1.351       .  D
C803        C804   1.554   1_556  S
C803       C1146   1.351       .  D
C804        C808   1.568       .  S
C804        C806   1.580       .  S
C804        H810   1.108       .  S
C805        H811   1.078       .  S
C805       C1150   1.347       .  D
C806       C1149   1.347   1_554  D
C806       C1162   1.510       .  S
C807       C1145   1.549   1_554  S
C807        H812   1.086       .  S
C807        C808   1.383       .  D
C808        C934   1.528       .  S
C813        C814   1.540       .  S
C813       C1163   1.527   1_554  S
C813        C817   1.540       .  S
C813        C924   1.537       .  S
C814        H821   1.086       .  S
C814       C1159   1.361       .  D
C815        C816   1.556       .  S
C815       C1158   1.361       .  D
C816        C820   1.568       .  S
C816        C818   1.571       .  S
C816        H822   1.110       .  S
C817        H823   1.074       .  S
C817       C1162   1.355       .  D
C818       C1161   1.355       .  D
C818       C1150   1.510       .  S
C819       C1157   1.527       .  S
C819        H824   1.087       .  S
C819        C820   1.363       .  D
C820        C914   1.512       .  S
C825        C917   1.512       .  S
C825        C826   1.422       .  A
C825        C830   1.403       .  A
C826       C1027   1.476       .  S
C826        C827   1.409       .  A
C827        C828   1.401       .  A
C827        H832   1.084       .  S
C828       C1014   1.509       .  S
C828        C829   1.422       .  A
C829        C927   1.480       .  S
C829        C830   1.412       .  A
C830        H831   1.084       .  S
C833        C894   1.508       .  S
C833        C834   1.412       .  A
C833        C838   1.395       .  A
C834        C947   1.472       .  S
C834        C835   1.412       .  A
C835        C836   1.406       .  A
C835        H840   1.084       .  S
C836        C937   1.521       .  S
C836        C837   1.426       .  A
C837        C904   1.480       .  S
C837        C838   1.416       .  A
C838        H839   1.084       .  S
C841        C842   1.535       .  S
C841       C1191   1.542       .  S
C841        C845   1.528       .  S
C841        C907   1.523       .  S
C842        H849   1.087       .  S
C842       C1187   1.354       .  D
C843        C844   1.555       .  S
C843       C1186   1.354       .  D
C844        C848   1.559       .  S
C844        C846   1.563       .  S
C844        H850   1.110       .  S
C845        H851   1.083       .  S
C845       C1190   1.351       .  D
C846       C1189   1.351       .  D
C846       C1202   1.491       .  S
C847       C1185   1.542       .  S
C847        H852   1.084       .  S
C847        C848   1.368       .  D
C848        C897   1.505       .  S
C853        C854   1.525       .  S
C853       C1203   1.543       .  S
C853        C857   1.530       .  S
C853        C887   1.528       .  S
C854        H861   1.088       .  S
C854       C1199   1.354       .  D
C855        C856   1.550   1_556  S
C855       C1198   1.354       .  D
C856        C860   1.555       .  S
C856        C858   1.563   1_554  S
C856        H862   1.110       .  S
C857        H863   1.077       .  S
C857       C1202   1.352       .  D
C858       C1201   1.352       .  D
C858       C1190   1.491   1_556  S
C859       C1197   1.543       .  S
C859        H864   1.086       .  S
C859        C860   1.368   1_556  D
C860        C877   1.498       .  S
C865        C874   1.506       .  S
C865        C866   1.414       .  A
C865        C870   1.395       .  A
C866        C967   1.465       .  S
C866        C867   1.410       .  A
C867        C868   1.398       .  A
C867        H872   1.085       .  S
C868        C957   1.512       .  S
C868        C869   1.422       .  A
C869        C884   1.473       .  S
C869        C870   1.414       .  A
C870        H871   1.084       .  S
C873        C874   1.413       .  A
C873        C878   1.417       .  A
C873       Br880   1.925       .  S
C874        C875   1.412       .  A
C875        C876   1.410       .  A
C875       Br882   1.925       .  S
C876        C877   1.410       .  A
C876       Br881   1.925       .  S
C877        C878   1.413       .  A
C878       Br879   1.928       .  S
C883        C884   1.403       .  A
C883        C888   1.400       .  A
C883       Br890   1.927       .  S
C884        C885   1.406       .  A
C885        C886   1.395       .  A
C885       Br892   1.933       .  S
C886        C887   1.426       .  A
C886       Br891   1.941       .  S
C887        C888   1.426       .  A
C888       Br889   1.940       .  S
C893        C894   1.412       .  A
C893        C898   1.418       .  A
C893       Br900   1.924       .  S
C894        C895   1.412       .  A
C895        C896   1.410       .  A
C895       Br902   1.924       .  S
C896        C897   1.412       .  A
C896       Br901   1.925       .  S
C897        C898   1.417       .  A
C898       Br899   1.928       .  S
C903        C904   1.412       .  A
C903        C908   1.412       .  A
C903       Br910   1.929       .  S
C904        C905   1.410       .  A
C905        C906   1.386       .  A
C905       Br912   1.925       .  S
C906        C907   1.413       .  A
C906       Br911   1.944       .  S
C907        C908   1.421       .  A
C908       Br909   1.931       .  S
C913        C914   1.417       .  A
C913        C918   1.414       .  A
C913       Br920   1.929       .  S
C914        C915   1.417       .  A
C915        C916   1.420       .  A
C915       Br922   1.920       .  S
C916        C917   1.413       .  A
C916       Br921   1.930       .  S
C917        C918   1.408       .  A
C918       Br919   1.923       .  S
C923        C924   1.414       .  A
C923        C928   1.400       .  A
C923       Br930   1.933       .  S
C924        C925   1.417       .  A
C925        C926   1.406       .  A
C925       Br932   1.935       .  S
C926        C927   1.410       .  A
C926       Br931   1.926       .  S
C927        C928   1.407       .  A
C928       Br929   1.930       .  S
C933        C934   1.414       .  A
C933        C938   1.416       .  A
C933       Br940   1.916       .  S
C934        C935   1.419       .  A
C935        C936   1.421       .  A
C935       Br942   1.921       .  S
C936        C937   1.413       .  A
C936       Br941   1.927       .  S
C937        C938   1.419       .  A
C938       Br939   1.925       .  S
C943        C944   1.426       .  A
C943        C948   1.404       .  A
C943       Br950   1.923       .  S
C944        C945   1.424       .  A
C945        C946   1.391       .  A
C945       Br952   1.941       .  S
C946        C947   1.401       .  A
C946       Br951   1.920       .  S
C947        C948   1.401       .  A
C948       Br949   1.925       .  S
C953        C954   1.418       .  A
C953        C958   1.419       .  A
C953       Br960   1.926       .  S
C954        C955   1.412       .  A
C955        C956   1.409       .  A
C955       Br962   1.923       .  S
C956        C957   1.414       .  A
C956       Br961   1.924       .  S
C957        C958   1.412       .  A
C958       Br959   1.926       .  S
C963        C964   1.421       .  A
C963        C968   1.385       .  A
C963       Br970   1.942       .  S
C964        C965   1.420       .  A
C965        C966   1.404       .  A
C965       Br972   1.925       .  S
C966        C967   1.405       .  A
C966       Br971   1.923       .  S
C967        C968   1.400       .  A
C968       Br969   1.922       .  S
C973        C974   1.416       .  A
C973        C978   1.415       .  A
C973       Br980   1.928       .  S
C974        C975   1.414       .  A
C975        C976   1.417       .  A
C975       Br982   1.923       .  S
C976        C977   1.418       .  A
C976       Br981   1.936       .  S
C977        C978   1.413       .  A
C978       Br979   1.927       .  S
C983        C984   1.408       .  A
C983        C988   1.394       .  A
C983       Br990   1.936       .  S
C984        C985   1.409       .  A
C985        C986   1.404       .  A
C985       Br992   1.927       .  S
C986        C987   1.423       .  A
C986       Br991   1.938       .  S
C987        C988   1.423       .  A
C988       Br989   1.940       .  S
C993        C994   1.411       .  A
C993        C998   1.417       .  A
C993      Br1000   1.929       .  S
C994        C995   1.417       .  A
C995        C996   1.419       .  A
C995      Br1002   1.937       .  S
C996        C997   1.418       .  A
C996      Br1001   1.919       .  S
C997        C998   1.422       .  A
C998       Br999   1.930       .  S
C1003      C1004   1.426       .  A
C1003      C1008   1.404       .  A
C1003     Br1010   1.939       .  S
C1004      C1005   1.425       .  A
C1005      C1006   1.397       .  A
C1005     Br1012   1.937       .  S
C1006      C1007   1.407       .  A
C1006     Br1011   1.935       .  S
C1007      C1008   1.408       .  A
C1008     Br1009   1.927       .  S
C1013      C1014   1.407       .  A
C1013      C1018   1.413       .  A
C1013     Br1020   1.923       .  S
C1014      C1015   1.412       .  A
C1015      C1016   1.418       .  A
C1015     Br1022   1.932       .  S
C1016      C1017   1.417       .  A
C1016     Br1021   1.919       .  S
C1017      C1018   1.419       .  A
C1018     Br1019   1.929       .  S
C1023      C1024   1.412       .  A
C1023      C1028   1.402       .  A
C1023     Br1030   1.925       .  S
C1024      C1025   1.416       .  A
C1025      C1026   1.399       .  A
C1025     Br1032   1.935       .  S
C1026      C1027   1.406       .  A
C1026     Br1031   1.926       .  S
C1027      C1028   1.407       .  A
C1028     Br1029   1.928       .  S
O1033      C1043   1.271       .  A
O1033     Cu2417   1.963   1_455  S
O1034     Cu1041   1.999       .  S
O1035      C1045   1.275       .  A
O1035     Cu2417   2.014   1_455  S
O1036     Cu1041   1.993       .  S
O1037      C1046   1.274       .  A
O1037     Cu2418   1.980       .  S
O1038     Cu1042   2.016   1_455  S
O1039      C1044   1.274       .  A
O1039     Cu2418   2.010       .  S
O1040     Cu1042   1.980   1_455  S
Cu1041     O2409   1.963       .  S
Cu1041     O2411   2.014       .  S
Cu1041    Cu2074   2.375       .  S
Cu1042     O2413   1.980       .  S
Cu1042     O2415   2.010       .  S
Cu1042    Cu2073   2.375   1_556  S
C1044      C1135   1.478       .  S
C1045      C1091   1.485       .  S
O1047      C1057   1.274       .  A
O1048     Cu1055   2.008       .  S
O1049      C1059   1.274       .  A
O1050     Cu1055   1.996       .  S
O1051      C1060   1.274       .  A
O1051     Cu1056   1.977       .  S
O1053      C1058   1.276       .  A
O1053     Cu1056   2.021       .  S
C1058      C1187   1.484   1_556  S
C1059      C1123   1.480       .  S
O1061     Cu1069   2.022   1_455  S
O1062      C1072   1.274       .  A
O1062     Cu2445   1.981       .  S
O1063     Cu1069   1.993   1_455  S
O1064      C1074   1.276       .  A
O1064     Cu2445   2.016       .  S
O1065     Cu1070   1.991       .  S
O1066      C1073   1.271   1_556  A
O1066     Cu2446   1.957       .  S
O1067     Cu1070   1.993       .  S
O1068      C1071   1.276   1_556  A
O1068     Cu2446   2.019       .  S
Cu1069     O2438   1.981       .  S
Cu1069     O2440   2.016       .  S
Cu1069    Cu2102   2.375   1_655  S
Cu1070     O2442   1.957       .  S
Cu1070     O2444   2.019       .  S
Cu1070    Cu2101   2.375   1_556  S
C1071      C1159   1.488       .  S
C1074      C1199   1.478       .  S
O1076      C1086   1.272       .  A
O1076     Cu1083   1.970       .  S
O1078      C1088   1.276       .  A
O1078     Cu1083   2.018       .  S
O1079     Cu1084   1.989       .  S
O1080      C1087   1.271   1_556  A
O1081     Cu1084   1.982       .  S
O1082      C1085   1.274   1_556  A
C1085      C1103   1.485       .  S
C1088      C1147   1.478       .  S
C1089      C1090   1.531       .  S
C1089      C1093   1.548       .  S
C1089      C1368   1.533       .  S
C1090      H1097   1.085       .  S
C1091      C1092   1.560       .  S
C1092      C1096   1.559       .  S
C1092      C1094   1.565       .  S
C1092      H1098   1.110       .  S
C1093      H1099   1.085       .  S
C1095      H1100   1.087       .  S
C1095      C1096   1.365       .  D
C1096      C1361   1.513       .  S
C1101      C1102   1.520       .  S
C1101      C1105   1.533       .  S
C1101      C1348   1.536       .  S
C1102      H1109   1.088       .  S
C1103      C1104   1.563   1_554  S
C1104      C1108   1.566       .  S
C1104      C1106   1.564   1_556  S
C1104      H1110   1.110       .  S
C1105      H1111   1.075       .  S
C1107      H1112   1.086       .  S
C1107      C1108   1.374       .  D
C1108      C1341   1.522       .  S
C1113      C1351   1.483       .  S
C1113      C1114   1.420       .  A
C1113      C1118   1.414       .  A
C1114      C1321   1.513       .  S
C1114      C1115   1.399       .  A
C1115      C1116   1.413       .  A
C1115      H1120   1.084       .  S
C1116      C1328   1.481       .  S
C1116      C1117   1.421       .  A
C1117      C1338   1.516       .  S
C1117      C1118   1.401       .  A
C1118      H1119   1.084       .  S
C1121      C1122   1.521       .  S
C1121      C1125   1.532       .  S
C1121      C1331   1.529       .  S
C1122      H1129   1.087       .  S
C1123      C1124   1.557       .  S
C1124      C1128   1.559       .  S
C1124      C1126   1.560       .  S
C1124      H1130   1.110       .  S
C1125      H1131   1.080       .  S
C1127      H1132   1.086       .  S
C1127      C1128   1.373       .  D
C1128      C1318   1.510       .  S
C1133      C1134   1.528       .  S
C1133      C1137   1.533       .  S
C1133      C1308   1.521       .  S
C1134      H1141   1.085       .  S
C1135      C1136   1.554       .  S
C1136      C1140   1.563       .  S
C1136      C1138   1.560   1_556  S
C1136      H1142   1.111       .  S
C1137      H1143   1.087       .  S
C1139      H1144   1.086       .  S
C1139      C1140   1.371       .  D
C1140      C1298   1.508       .  S
C1145      C1146   1.519       .  S
C1145      C1149   1.528       .  S
C1145      C1288   1.536       .  S
C1146      H1153   1.088       .  S
C1147      C1148   1.554       .  S
C1148      C1152   1.568       .  S
C1148      C1150   1.580       .  S
C1148      H1154   1.108       .  S
C1149      H1155   1.078       .  S
C1151      H1156   1.086       .  S
C1151      C1152   1.383       .  D
C1152      C1278   1.528       .  S
C1157      C1158   1.540       .  S
C1157      C1161   1.540       .  S
C1157      C1268   1.537       .  S
C1158      H1165   1.086       .  S
C1159      C1160   1.556   1_554  S
C1160      C1164   1.568       .  S
C1160      C1162   1.571   1_556  S
C1160      H1166   1.110       .  S
C1161      H1167   1.074       .  S
C1163      H1168   1.087       .  S
C1163      C1164   1.363       .  D
C1164      C1258   1.512       .  S
C1169      C1261   1.512       .  S
C1169      C1170   1.422       .  A
C1169      C1174   1.403       .  A
C1170      C1371   1.476       .  S
C1170      C1171   1.409       .  A
C1171      C1172   1.401       .  A
C1171      H1176   1.084       .  S
C1172      C1358   1.509       .  S
C1172      C1173   1.422       .  A
C1173      C1271   1.480       .  S
C1173      C1174   1.412       .  A
C1174      H1175   1.084       .  S
C1177      C1238   1.508       .  S
C1177      C1178   1.412       .  A
C1177      C1182   1.395       .  A
C1178      C1291   1.472       .  S
C1178      C1179   1.412       .  A
C1179      C1180   1.406       .  A
C1179      H1184   1.084       .  S
C1180      C1281   1.521       .  S
C1180      C1181   1.426       .  A
C1181      C1248   1.480       .  S
C1181      C1182   1.416       .  A
C1182      H1183   1.084       .  S
C1185      C1186   1.535       .  S
C1185      C1189   1.528       .  S
C1185      C1251   1.523       .  S
C1186      H1193   1.087       .  S
C1187      C1188   1.555   1_554  S
C1188      C1192   1.559       .  S
C1188      C1190   1.563   1_556  S
C1188      H1194   1.110       .  S
C1189      H1195   1.083       .  S
C1191      H1196   1.084   1_554  S
C1191      C1192   1.368   1_554  D
C1192      C1241   1.505       .  S
C1197      C1198   1.525       .  S
C1197      C1201   1.530       .  S
C1197      C1231   1.528       .  S
C1198      H1205   1.088       .  S
C1199      C1200   1.550       .  S
C1200      C1204   1.555       .  S
C1200      C1202   1.563       .  S
C1200      H1206   1.110       .  S
C1201      H1207   1.077       .  S
C1203      H1208   1.086       .  S
C1203      C1204   1.368       .  D
C1204      C1221   1.498       .  S
C1209      C1218   1.506       .  S
C1209      C1210   1.414       .  A
C1209      C1214   1.395       .  A
C1210      C1311   1.465       .  S
C1210      C1211   1.410       .  A
C1211      C1212   1.398       .  A
C1211      H1216   1.085       .  S
C1212      C1301   1.512       .  S
C1212      C1213   1.422       .  A
C1213      C1228   1.473       .  S
C1213      C1214   1.414       .  A
C1214      H1215   1.084       .  S
C1217      C1218   1.413       .  A
C1217      C1222   1.417       .  A
C1217     Br1224   1.925       .  S
C1218      C1219   1.412       .  A
C1219      C1220   1.410       .  A
C1219     Br1226   1.925       .  S
C1220      C1221   1.410       .  A
C1220     Br1225   1.925       .  S
C1221      C1222   1.413       .  A
C1222     Br1223   1.928       .  S
C1227      C1228   1.403       .  A
C1227      C1232   1.400       .  A
C1227     Br1234   1.927       .  S
C1228      C1229   1.406       .  A
C1229      C1230   1.395       .  A
C1229     Br1236   1.933       .  S
C1230      C1231   1.426       .  A
C1230     Br1235   1.941       .  S
C1231      C1232   1.426       .  A
C1232     Br1233   1.940       .  S
C1237      C1238   1.412       .  A
C1237      C1242   1.418       .  A
C1237     Br1244   1.924       .  S
C1238      C1239   1.412       .  A
C1239      C1240   1.410       .  A
C1239     Br1246   1.924       .  S
C1240      C1241   1.412       .  A
C1240     Br1245   1.925       .  S
C1241      C1242   1.417       .  A
C1242     Br1243   1.928       .  S
C1247      C1248   1.412       .  A
C1247      C1252   1.412       .  A
C1247     Br1254   1.929       .  S
C1248      C1249   1.410       .  A
C1249      C1250   1.386       .  A
C1249     Br1256   1.925       .  S
C1250      C1251   1.413       .  A
C1250     Br1255   1.944       .  S
C1251      C1252   1.421       .  A
C1252     Br1253   1.931       .  S
C1257      C1258   1.417       .  A
C1257      C1262   1.414       .  A
C1257     Br1264   1.929       .  S
C1258      C1259   1.417       .  A
C1259      C1260   1.420       .  A
C1259     Br1266   1.920       .  S
C1260      C1261   1.413       .  A
C1260     Br1265   1.930       .  S
C1261      C1262   1.408       .  A
C1262     Br1263   1.923       .  S
C1267      C1268   1.414       .  A
C1267      C1272   1.400       .  A
C1267     Br1274   1.933       .  S
C1268      C1269   1.417       .  A
C1269      C1270   1.406       .  A
C1269     Br1276   1.935       .  S
C1270      C1271   1.410       .  A
C1270     Br1275   1.926       .  S
C1271      C1272   1.407       .  A
C1272     Br1273   1.930       .  S
C1277      C1278   1.414       .  A
C1277      C1282   1.416       .  A
C1277     Br1284   1.916       .  S
C1278      C1279   1.419       .  A
C1279      C1280   1.421       .  A
C1279     Br1286   1.921       .  S
C1280      C1281   1.413       .  A
C1280     Br1285   1.927       .  S
C1281      C1282   1.419       .  A
C1282     Br1283   1.925       .  S
C1287      C1288   1.426       .  A
C1287      C1292   1.404       .  A
C1287     Br1294   1.923       .  S
C1288      C1289   1.424       .  A
C1289      C1290   1.391       .  A
C1289     Br1296   1.941       .  S
C1290      C1291   1.401       .  A
C1290     Br1295   1.920       .  S
C1291      C1292   1.401       .  A
C1292     Br1293   1.925       .  S
C1297      C1298   1.418       .  A
C1297      C1302   1.419       .  A
C1297     Br1304   1.926       .  S
C1298      C1299   1.412       .  A
C1299      C1300   1.409       .  A
C1299     Br1306   1.923       .  S
C1300      C1301   1.414       .  A
C1300     Br1305   1.924       .  S
C1301      C1302   1.412       .  A
C1302     Br1303   1.926       .  S
C1307      C1308   1.421       .  A
C1307      C1312   1.385       .  A
C1307     Br1314   1.942       .  S
C1308      C1309   1.420       .  A
C1309      C1310   1.404       .  A
C1309     Br1316   1.925       .  S
C1310      C1311   1.405       .  A
C1310     Br1315   1.923       .  S
C1311      C1312   1.400       .  A
C1312     Br1313   1.922       .  S
C1317      C1318   1.416       .  A
C1317      C1322   1.415       .  A
C1317     Br1324   1.928       .  S
C1318      C1319   1.414       .  A
C1319      C1320   1.417       .  A
C1319     Br1326   1.923       .  S
C1320      C1321   1.418       .  A
C1320     Br1325   1.936       .  S
C1321      C1322   1.413       .  A
C1322     Br1323   1.927       .  S
C1327      C1328   1.408       .  A
C1327      C1332   1.394       .  A
C1327     Br1334   1.936       .  S
C1328      C1329   1.409       .  A
C1329      C1330   1.404       .  A
C1329     Br1336   1.927       .  S
C1330      C1331   1.423       .  A
C1330     Br1335   1.938       .  S
C1331      C1332   1.423       .  A
C1332     Br1333   1.940       .  S
C1337      C1338   1.411       .  A
C1337      C1342   1.417       .  A
C1337     Br1344   1.929       .  S
C1338      C1339   1.417       .  A
C1339      C1340   1.419       .  A
C1339     Br1346   1.937       .  S
C1340      C1341   1.418       .  A
C1340     Br1345   1.919       .  S
C1341      C1342   1.422       .  A
C1342     Br1343   1.930       .  S
C1347      C1348   1.426       .  A
C1347      C1352   1.404       .  A
C1347     Br1354   1.939       .  S
C1348      C1349   1.425       .  A
C1349      C1350   1.397       .  A
C1349     Br1356   1.937       .  S
C1350      C1351   1.407       .  A
C1350     Br1355   1.935       .  S
C1351      C1352   1.408       .  A
C1352     Br1353   1.927       .  S
C1357      C1358   1.407       .  A
C1357      C1362   1.413       .  A
C1357     Br1364   1.923       .  S
C1358      C1359   1.412       .  A
C1359      C1360   1.418       .  A
C1359     Br1366   1.932       .  S
C1360      C1361   1.417       .  A
C1360     Br1365   1.919       .  S
C1361      C1362   1.419       .  A
C1362     Br1363   1.929       .  S
C1367      C1368   1.412       .  A
C1367      C1372   1.402       .  A
C1367     Br1374   1.925       .  S
C1368      C1369   1.416       .  A
C1369      C1370   1.399       .  A
C1369     Br1376   1.935       .  S
C1370      C1371   1.406       .  A
C1370     Br1375   1.926       .  S
C1371      C1372   1.407       .  A
C1372     Br1373   1.928       .  S
O1377      C1387   1.271       .  A
O1378      C1732   1.281   1_554  A
O1378     Cu1385   1.999       .  S
O1379      C1389   1.275   1_554  A
O1380      C1734   1.277   1_554  A
O1380     Cu1385   1.993       .  S
O1381      C1390   1.274       .  A
O1382      C1733   1.282       .  A
O1382     Cu1386   2.016       .  S
O1383      C1388   1.274       .  A
O1384      C1731   1.276       .  A
O1384     Cu1386   1.980       .  S
C1387      O1728   1.276   1_554  A
C1387      C1775   1.438       .  S
C1388      O1722   1.281       .  A
C1388      C1479   1.478       .  S
C1389      O1726   1.282       .  A
C1389      C1435   1.485       .  S
C1390      O1724   1.277       .  A
C1390      C1745   1.449       .  S
O1391      C1401   1.274   1_554  A
O1391     Cu2087   1.976       .  S
O1392      C1746   1.281   1_554  A
O1392     Cu1399   2.008       .  S
O1393      C1403   1.274   1_554  A
O1393     Cu2087   2.010       .  S
O1394      C1748   1.277   1_554  A
O1394     Cu1399   1.996       .  S
O1395      C1404   1.274       .  A
O1395     Cu1400   1.977       .  S
O1396      C1747   1.281       .  A
O1396     Cu2088   2.002       .  S
O1397      C1402   1.276       .  A
O1397     Cu1400   2.021       .  S
O1398      C1745   1.277       .  A
O1398     Cu2088   1.997       .  S
Cu1399     O2079   1.976   1_545  S
Cu1399     O2081   2.010   1_545  S
Cu1399    Cu1744   2.374   1_554  S
Cu1400     O2084   2.002   1_545  S
Cu1400     O2086   1.997   1_545  S
Cu1400    Cu1743   2.374       .  S
C1401      O1742   1.277       .  A
C1401      C1734   1.449       .  S
C1402      O1736   1.281       .  A
C1402      C1531   1.484       .  S
C1403      O1740   1.281       .  A
C1403      C1467   1.480       .  S
C1404      O1738   1.277       .  A
C1404      C1760   1.449       .  S
O1405      C1759   1.281       .  A
O1405     Cu1413   2.022       .  S
O1406      C1416   1.274   1_554  A
O1407      C1761   1.277       .  A
O1407     Cu1413   1.993       .  S
O1408      C1418   1.276   1_554  A
O1409      C1762   1.279       .  A
O1409     Cu1414   1.991   1_655  S
O1410      C1417   1.271       .  A
O1411      C1760   1.277       .  A
O1411     Cu1414   1.993   1_655  S
O1412      C1415   1.276       .  A
C1415      O1749   1.281       .  A
C1415      C1503   1.488       .  S
C1416      O1755   1.277       .  A
C1416      C1748   1.449       .  S
C1417      O1751   1.277       .  A
C1417      C1774   1.441       .  S
C1418      O1753   1.279       .  A
C1418      C1543   1.478       .  S
O1419      C1773   1.282       .  A
O1419     Cu2115   2.007       .  S
O1420      C1430   1.272       .  A
O1420     Cu1427   1.970       .  S
O1421      C1775   1.277       .  A
O1421     Cu2115   1.990       .  S
O1422      C1432   1.276       .  A
O1422     Cu1427   2.018       .  S
O1423      C1776   1.280       .  A
O1423     Cu1428   1.989       .  S
O1424      C1431   1.271       .  A
O1424     Cu2116   1.952       .  S
O1425      C1774   1.276       .  A
O1425     Cu1428   1.982       .  S
O1426      C1429   1.274       .  A
O1426     Cu2116   2.012       .  S
Cu1427     O2107   2.007   1_545  S
Cu1427     O2109   1.990   1_545  S
Cu1427    Cu1772   2.376   1_554  S
Cu1428     O2112   1.952   1_545  S
Cu1428     O2114   2.012   1_545  S
Cu1428    Cu1771   2.376       .  S
C1429      O1763   1.282       .  A
C1429      C1447   1.485       .  S
C1430      O1769   1.276   1_554  A
C1430      C1761   1.441       .  S
C1431      O1765   1.277       .  A
C1431      C1731   1.438       .  S
C1432      O1767   1.280   1_554  A
C1432      C1491   1.478   1_554  S
C1433      C1434   1.531       .  S
C1433      C1783   1.533       .  S
C1433      C1437   1.548       .  S
C1433      C1712   1.533       .  S
C1434      H1441   1.085       .  S
C1434      C1779   1.356       .  D
C1435      C1436   1.560   1_556  S
C1435      C1778   1.356       .  D
C1436      C1440   1.559       .  S
C1436      C1438   1.565   1_554  S
C1436      H1442   1.110       .  S
C1437      H1443   1.085       .  S
C1437      C1782   1.361       .  D
C1438      C1781   1.361       .  D
C1438      C1794   1.499   1_556  S
C1439      C1777   1.533   1_554  S
C1439      H1444   1.087       .  S
C1439      C1440   1.365       .  D
C1440      C1705   1.513       .  S
C1445      C1446   1.520       .  S
C1445      C1795   1.542   1_554  S
C1445      C1449   1.533       .  S
C1445      C1692   1.536       .  S
C1446      H1453   1.088       .  S
C1446      C1791   1.354       .  D
C1447      C1448   1.563       .  S
C1447      C1790   1.354       .  D
C1448      C1452   1.566       .  S
C1448      C1450   1.564       .  S
C1448      H1454   1.110       .  S
C1449      H1455   1.075       .  S
C1449      C1794   1.354       .  D
C1450      C1793   1.354       .  D
C1450      C1782   1.499       .  S
C1451      C1789   1.542       .  S
C1451      H1456   1.086       .  S
C1451      C1452   1.374       .  D
C1452      C1685   1.522       .  S
C1457      C1695   1.483       .  S
C1457      C1458   1.420       .  A
C1457      C1462   1.414       .  A
C1458      C1665   1.513       .  S
C1458      C1459   1.399       .  A
C1459      C1460   1.413       .  A
C1459      H1464   1.084       .  S
C1460      C1672   1.481       .  S
C1460      C1461   1.421       .  A
C1461      C1682   1.516       .  S
C1461      C1462   1.401       .  A
C1462      H1463   1.084       .  S
C1465      C1466   1.521       .  S
C1465      C1815   1.542       .  S
C1465      C1469   1.532       .  S
C1465      C1675   1.529       .  S
C1466      H1473   1.087       .  S
C1466      C1811   1.354       .  D
C1467      C1468   1.557   1_556  S
C1467      C1810   1.354       .  D
C1468      C1472   1.559       .  S
C1468      C1470   1.560   1_554  S
C1468      H1474   1.110       .  S
C1469      H1475   1.080       .  S
C1469      C1814   1.352       .  D
C1470      C1813   1.352       .  D
C1470      C1826   1.490   1_556  S
C1471      C1809   1.542   1_554  S
C1471      H1476   1.086       .  S
C1471      C1472   1.373       .  D
C1472      C1662   1.510       .  S
C1477      C1478   1.528       .  S
C1477      C1827   1.542   1_554  S
C1477      C1481   1.533       .  S
C1477      C1652   1.521       .  S
C1478      H1485   1.085       .  S
C1478      C1823   1.347   1_554  D
C1479      C1480   1.554       .  S
C1479      C1822   1.347       .  D
C1480      C1484   1.563       .  S
C1480      C1482   1.560       .  S
C1480      H1486   1.111       .  S
C1481      H1487   1.087       .  S
C1481      C1826   1.354       .  D
C1482      C1825   1.354       .  D
C1482      C1814   1.490       .  S
C1483      C1821   1.542       .  S
C1483      H1488   1.086       .  S
C1483      C1484   1.371       .  D
C1484      C1642   1.508       .  S
C1489      C1490   1.519       .  S
C1489      C1839   1.549       .  S
C1489      C1493   1.528       .  S
C1489      C1632   1.536       .  S
C1490      H1497   1.088       .  S
C1490      C1835   1.351       .  D
C1491      C1492   1.554   1_556  S
C1491      C1834   1.351       .  D
C1492      C1496   1.568       .  S
C1492      C1494   1.580       .  S
C1492      H1498   1.108       .  S
C1493      H1499   1.078       .  S
C1493      C1838   1.347       .  D
C1494      C1837   1.347   1_554  D
C1494      C1850   1.510       .  S
C1495      C1833   1.549   1_554  S
C1495      H1500   1.086       .  S
C1495      C1496   1.383       .  D
C1496      C1622   1.528       .  S
C1501      C1502   1.540       .  S
C1501      C1851   1.527   1_554  S
C1501      C1505   1.540       .  S
C1501      C1612   1.537       .  S
C1502      H1509   1.086       .  S
C1502      C1847   1.361       .  D
C1503      C1504   1.556       .  S
C1503      C1846   1.361       .  D
C1504      C1508   1.568       .  S
C1504      C1506   1.571       .  S
C1504      H1510   1.110       .  S
C1505      H1511   1.074       .  S
C1505      C1850   1.355       .  D
C1506      C1849   1.355       .  D
C1506      C1838   1.510       .  S
C1507      C1845   1.527       .  S
C1507      H1512   1.087       .  S
C1507      C1508   1.363       .  D
C1508      C1602   1.512       .  S
C1513      C1605   1.512       .  S
C1513      C1514   1.422       .  A
C1513      C1518   1.403       .  A
C1514      C1715   1.476       .  S
C1514      C1515   1.409       .  A
C1515      C1516   1.401       .  A
C1515      H1520   1.084       .  S
C1516      C1702   1.509       .  S
C1516      C1517   1.422       .  A
C1517      C1615   1.480       .  S
C1517      C1518   1.412       .  A
C1518      H1519   1.084       .  S
C1521      C1582   1.508       .  S
C1521      C1522   1.412       .  A
C1521      C1526   1.395       .  A
C1522      C1635   1.472       .  S
C1522      C1523   1.412       .  A
C1523      C1524   1.406       .  A
C1523      H1528   1.084       .  S
C1524      C1625   1.521       .  S
C1524      C1525   1.426       .  A
C1525      C1592   1.480       .  S
C1525      C1526   1.416       .  A
C1526      H1527   1.084       .  S
C1529      C1530   1.535       .  S
C1529      C1879   1.542       .  S
C1529      C1533   1.528       .  S
C1529      C1595   1.523       .  S
C1530      H1537   1.087       .  S
C1530      C1875   1.354       .  D
C1531      C1532   1.555       .  S
C1531      C1874   1.354       .  D
C1532      C1536   1.559       .  S
C1532      C1534   1.563       .  S
C1532      H1538   1.110       .  S
C1533      H1539   1.083       .  S
C1533      C1878   1.351       .  D
C1534      C1877   1.351       .  D
C1534      C1890   1.491       .  S
C1535      C1873   1.542       .  S
C1535      H1540   1.084       .  S
C1535      C1536   1.368       .  D
C1536      C1585   1.505       .  S
C1541      C1542   1.525       .  S
C1541      C1891   1.543       .  S
C1541      C1545   1.530       .  S
C1541      C1575   1.528       .  S
C1542      H1549   1.088       .  S
C1542      C1887   1.354       .  D
C1543      C1544   1.550   1_556  S
C1543      C1886   1.354       .  D
C1544      C1548   1.555       .  S
C1544      C1546   1.563   1_554  S
C1544      H1550   1.110       .  S
C1545      H1551   1.077       .  S
C1545      C1890   1.352       .  D
C1546      C1889   1.352       .  D
C1546      C1878   1.491   1_556  S
C1547      C1885   1.543       .  S
C1547      H1552   1.086       .  S
C1547      C1548   1.368   1_556  D
C1548      C1565   1.498       .  S
C1553      C1562   1.506       .  S
C1553      C1554   1.414       .  A
C1553      C1558   1.395       .  A
C1554      C1655   1.465       .  S
C1554      C1555   1.410       .  A
C1555      C1556   1.398       .  A
C1555      H1560   1.085       .  S
C1556      C1645   1.512       .  S
C1556      C1557   1.422       .  A
C1557      C1572   1.473       .  S
C1557      C1558   1.414       .  A
C1558      H1559   1.084       .  S
C1561      C1562   1.413       .  A
C1561      C1566   1.417       .  A
C1561     Br1568   1.925       .  S
C1562      C1563   1.412       .  A
C1563      C1564   1.410       .  A
C1563     Br1570   1.925       .  S
C1564      C1565   1.410       .  A
C1564     Br1569   1.925       .  S
C1565      C1566   1.413       .  A
C1566     Br1567   1.928       .  S
C1571      C1572   1.403       .  A
C1571      C1576   1.400       .  A
C1571     Br1578   1.927       .  S
C1572      C1573   1.406       .  A
C1573      C1574   1.395       .  A
C1573     Br1580   1.933       .  S
C1574      C1575   1.426       .  A
C1574     Br1579   1.941       .  S
C1575      C1576   1.426       .  A
C1576     Br1577   1.940       .  S
C1581      C1582   1.412       .  A
C1581      C1586   1.418       .  A
C1581     Br1588   1.924       .  S
C1582      C1583   1.412       .  A
C1583      C1584   1.410       .  A
C1583     Br1590   1.924       .  S
C1584      C1585   1.412       .  A
C1584     Br1589   1.925       .  S
C1585      C1586   1.417       .  A
C1586     Br1587   1.928       .  S
C1591      C1592   1.412       .  A
C1591      C1596   1.412       .  A
C1591     Br1598   1.929       .  S
C1592      C1593   1.410       .  A
C1593      C1594   1.386       .  A
C1593     Br1600   1.925       .  S
C1594      C1595   1.413       .  A
C1594     Br1599   1.944       .  S
C1595      C1596   1.421       .  A
C1596     Br1597   1.931       .  S
C1601      C1602   1.417       .  A
C1601      C1606   1.414       .  A
C1601     Br1608   1.929       .  S
C1602      C1603   1.417       .  A
C1603      C1604   1.420       .  A
C1603     Br1610   1.920       .  S
C1604      C1605   1.413       .  A
C1604     Br1609   1.930       .  S
C1605      C1606   1.408       .  A
C1606     Br1607   1.923       .  S
C1611      C1612   1.414       .  A
C1611      C1616   1.400       .  A
C1611     Br1618   1.933       .  S
C1612      C1613   1.417       .  A
C1613      C1614   1.406       .  A
C1613     Br1620   1.935       .  S
C1614      C1615   1.410       .  A
C1614     Br1619   1.926       .  S
C1615      C1616   1.407       .  A
C1616     Br1617   1.930       .  S
C1621      C1622   1.414       .  A
C1621      C1626   1.416       .  A
C1621     Br1628   1.916       .  S
C1622      C1623   1.419       .  A
C1623      C1624   1.421       .  A
C1623     Br1630   1.921       .  S
C1624      C1625   1.413       .  A
C1624     Br1629   1.927       .  S
C1625      C1626   1.419       .  A
C1626     Br1627   1.925       .  S
C1631      C1632   1.426       .  A
C1631      C1636   1.404       .  A
C1631     Br1638   1.923       .  S
C1632      C1633   1.424       .  A
C1633      C1634   1.391       .  A
C1633     Br1640   1.941       .  S
C1634      C1635   1.401       .  A
C1634     Br1639   1.920       .  S
C1635      C1636   1.401       .  A
C1636     Br1637   1.925       .  S
C1641      C1642   1.418       .  A
C1641      C1646   1.419       .  A
C1641     Br1648   1.926       .  S
C1642      C1643   1.412       .  A
C1643      C1644   1.409       .  A
C1643     Br1650   1.923       .  S
C1644      C1645   1.414       .  A
C1644     Br1649   1.924       .  S
C1645      C1646   1.412       .  A
C1646     Br1647   1.926       .  S
C1651      C1652   1.421       .  A
C1651      C1656   1.385       .  A
C1651     Br1658   1.942       .  S
C1652      C1653   1.420       .  A
C1653      C1654   1.404       .  A
C1653     Br1660   1.925       .  S
C1654      C1655   1.405       .  A
C1654     Br1659   1.923       .  S
C1655      C1656   1.400       .  A
C1656     Br1657   1.922       .  S
C1661      C1662   1.416       .  A
C1661      C1666   1.415       .  A
C1661     Br1668   1.928       .  S
C1662      C1663   1.414       .  A
C1663      C1664   1.417       .  A
C1663     Br1670   1.923       .  S
C1664      C1665   1.418       .  A
C1664     Br1669   1.936       .  S
C1665      C1666   1.413       .  A
C1666     Br1667   1.927       .  S
C1671      C1672   1.408       .  A
C1671      C1676   1.394       .  A
C1671     Br1678   1.936       .  S
C1672      C1673   1.409       .  A
C1673      C1674   1.404       .  A
C1673     Br1680   1.927       .  S
C1674      C1675   1.423       .  A
C1674     Br1679   1.938       .  S
C1675      C1676   1.423       .  A
C1676     Br1677   1.940       .  S
C1681      C1682   1.411       .  A
C1681      C1686   1.417       .  A
C1681     Br1688   1.929       .  S
C1682      C1683   1.417       .  A
C1683      C1684   1.419       .  A
C1683     Br1690   1.937       .  S
C1684      C1685   1.418       .  A
C1684     Br1689   1.919       .  S
C1685      C1686   1.422       .  A
C1686     Br1687   1.930       .  S
C1691      C1692   1.426       .  A
C1691      C1696   1.404       .  A
C1691     Br1698   1.939       .  S
C1692      C1693   1.425       .  A
C1693      C1694   1.397       .  A
C1693     Br1700   1.937       .  S
C1694      C1695   1.407       .  A
C1694     Br1699   1.935       .  S
C1695      C1696   1.408       .  A
C1696     Br1697   1.927       .  S
C1701      C1702   1.407       .  A
C1701      C1706   1.413       .  A
C1701     Br1708   1.923       .  S
C1702      C1703   1.412       .  A
C1703      C1704   1.418       .  A
C1703     Br1710   1.932       .  S
C1704      C1705   1.417       .  A
C1704     Br1709   1.919       .  S
C1705      C1706   1.419       .  A
C1706     Br1707   1.929       .  S
C1711      C1712   1.412       .  A
C1711      C1716   1.402       .  A
C1711     Br1718   1.925       .  S
C1712      C1713   1.416       .  A
C1713      C1714   1.399       .  A
C1713     Br1720   1.935       .  S
C1714      C1715   1.406       .  A
C1714     Br1719   1.926       .  S
C1715      C1716   1.407       .  A
C1716     Br1717   1.928       .  S
O1721      C1731   1.271       .  A
O1722     Cu1729   1.999       .  S
O1723      C1733   1.275       .  A
O1724     Cu1729   1.993       .  S
O1725      C1734   1.274       .  A
O1726     Cu1730   2.016       .  S
O1727      C1732   1.274       .  A
O1728     Cu1730   1.980       .  S
C1732      C1823   1.478       .  S
C1733      C1779   1.485       .  S
O1735      C1745   1.274       .  A
O1735     Cu2431   1.976       .  S
O1736     Cu1743   2.008       .  S
O1737      C1747   1.274       .  A
O1737     Cu2431   2.010       .  S
O1738     Cu1743   1.996       .  S
O1739      C1748   1.274       .  A
O1739     Cu1744   1.977       .  S
O1740     Cu2432   2.002       .  S
O1741      C1746   1.276       .  A
O1741     Cu1744   2.021       .  S
O1742     Cu2432   1.997       .  S
Cu1743     O2423   1.976   1_545  S
Cu1743     O2425   2.010   1_545  S
Cu1744     O2428   2.002   1_545  S
Cu1744     O2430   1.997   1_545  S
C1746      C1875   1.484   1_556  S
C1747      C1811   1.480       .  S
O1749     Cu1757   2.022       .  S
O1750      C1760   1.274       .  A
O1751     Cu1757   1.993       .  S
O1752      C1762   1.276       .  A
O1753     Cu1758   1.991   1_655  S
O1754      C1761   1.271   1_556  A
O1755     Cu1758   1.993   1_655  S
O1756      C1759   1.276   1_556  A
C1759      C1847   1.488       .  S
C1762      C1887   1.478       .  S
O1763     Cu2459   2.007       .  S
O1764      C1774   1.272       .  A
O1764     Cu1771   1.970       .  S
O1765     Cu2459   1.990       .  S
O1766      C1776   1.276       .  A
O1766     Cu1771   2.018       .  S
O1767     Cu1772   1.989       .  S
O1768      C1775   1.271   1_556  A
O1768     Cu2460   1.952       .  S
O1769     Cu1772   1.982       .  S
O1770      C1773   1.274   1_556  A
O1770     Cu2460   2.012       .  S
Cu1771     O2451   2.007   1_545  S
Cu1771     O2453   1.990   1_545  S
Cu1772     O2456   1.952   1_545  S
Cu1772     O2458   2.012   1_545  S
C1773      C1791   1.485       .  S
C1776      C1835   1.478       .  S
C1777      C1778   1.531       .  S
C1777      C1781   1.548       .  S
C1777      C2056   1.533       .  S
C1778      H1785   1.085       .  S
C1779      C1780   1.560       .  S
C1780      C1784   1.559       .  S
C1780      C1782   1.565       .  S
C1780      H1786   1.110       .  S
C1781      H1787   1.085       .  S
C1783      H1788   1.087       .  S
C1783      C1784   1.365       .  D
C1784      C2049   1.513       .  S
C1789      C1790   1.520       .  S
C1789      C1793   1.533       .  S
C1789      C2036   1.536       .  S
C1790      H1797   1.088       .  S
C1791      C1792   1.563   1_554  S
C1792      C1796   1.566       .  S
C1792      C1794   1.564   1_556  S
C1792      H1798   1.110       .  S
C1793      H1799   1.075       .  S
C1795      H1800   1.086       .  S
C1795      C1796   1.374       .  D
C1796      C2029   1.522       .  S
C1801      C2039   1.483       .  S
C1801      C1802   1.420       .  A
C1801      C1806   1.414       .  A
C1802      C2009   1.513       .  S
C1802      C1803   1.399       .  A
C1803      C1804   1.413       .  A
C1803      H1808   1.084       .  S
C1804      C2016   1.481       .  S
C1804      C1805   1.421       .  A
C1805      C2026   1.516       .  S
C1805      C1806   1.401       .  A
C1806      H1807   1.084       .  S
C1809      C1810   1.521       .  S
C1809      C1813   1.532       .  S
C1809      C2019   1.529       .  S
C1810      H1817   1.087       .  S
C1811      C1812   1.557       .  S
C1812      C1816   1.559       .  S
C1812      C1814   1.560       .  S
C1812      H1818   1.110       .  S
C1813      H1819   1.080       .  S
C1815      H1820   1.086       .  S
C1815      C1816   1.373       .  D
C1816      C2006   1.510       .  S
C1821      C1822   1.528       .  S
C1821      C1825   1.533       .  S
C1821      C1996   1.521       .  S
C1822      H1829   1.085       .  S
C1823      C1824   1.554       .  S
C1824      C1828   1.563       .  S
C1824      C1826   1.560   1_556  S
C1824      H1830   1.111       .  S
C1825      H1831   1.087       .  S
C1827      H1832   1.086       .  S
C1827      C1828   1.371       .  D
C1828      C1986   1.508       .  S
C1833      C1834   1.519       .  S
C1833      C1837   1.528       .  S
C1833      C1976   1.536       .  S
C1834      H1841   1.088       .  S
C1835      C1836   1.554       .  S
C1836      C1840   1.568       .  S
C1836      C1838   1.580       .  S
C1836      H1842   1.108       .  S
C1837      H1843   1.078       .  S
C1839      H1844   1.086       .  S
C1839      C1840   1.383       .  D
C1840      C1966   1.528       .  S
C1845      C1846   1.540       .  S
C1845      C1849   1.540       .  S
C1845      C1956   1.537       .  S
C1846      H1853   1.086       .  S
C1847      C1848   1.556   1_554  S
C1848      C1852   1.568       .  S
C1848      C1850   1.571   1_556  S
C1848      H1854   1.110       .  S
C1849      H1855   1.074       .  S
C1851      H1856   1.087       .  S
C1851      C1852   1.363       .  D
C1852      C1946   1.512       .  S
C1857      C1949   1.512       .  S
C1857      C1858   1.422       .  A
C1857      C1862   1.403       .  A
C1858      C2059   1.476       .  S
C1858      C1859   1.409       .  A
C1859      C1860   1.401       .  A
C1859      H1864   1.084       .  S
C1860      C2046   1.509       .  S
C1860      C1861   1.422       .  A
C1861      C1959   1.480       .  S
C1861      C1862   1.412       .  A
C1862      H1863   1.084       .  S
C1865      C1926   1.508       .  S
C1865      C1866   1.412       .  A
C1865      C1870   1.395       .  A
C1866      C1979   1.472       .  S
C1866      C1867   1.412       .  A
C1867      C1868   1.406       .  A
C1867      H1872   1.084       .  S
C1868      C1969   1.521       .  S
C1868      C1869   1.426       .  A
C1869      C1936   1.480       .  S
C1869      C1870   1.416       .  A
C1870      H1871   1.084       .  S
C1873      C1874   1.535       .  S
C1873      C1877   1.528       .  S
C1873      C1939   1.523       .  S
C1874      H1881   1.087       .  S
C1875      C1876   1.555   1_554  S
C1876      C1880   1.559       .  S
C1876      C1878   1.563   1_556  S
C1876      H1882   1.110       .  S
C1877      H1883   1.083       .  S
C1879      H1884   1.084   1_554  S
C1879      C1880   1.368   1_554  D
C1880      C1929   1.505       .  S
C1885      C1886   1.525       .  S
C1885      C1889   1.530       .  S
C1885      C1919   1.528       .  S
C1886      H1893   1.088       .  S
C1887      C1888   1.550       .  S
C1888      C1892   1.555       .  S
C1888      C1890   1.563       .  S
C1888      H1894   1.110       .  S
C1889      H1895   1.077       .  S
C1891      H1896   1.086       .  S
C1891      C1892   1.368       .  D
C1892      C1909   1.498       .  S
C1897      C1906   1.506       .  S
C1897      C1898   1.414       .  A
C1897      C1902   1.395       .  A
C1898      C1999   1.465       .  S
C1898      C1899   1.410       .  A
C1899      C1900   1.398       .  A
C1899      H1904   1.085       .  S
C1900      C1989   1.512       .  S
C1900      C1901   1.422       .  A
C1901      C1916   1.473       .  S
C1901      C1902   1.414       .  A
C1902      H1903   1.084       .  S
C1905      C1906   1.413       .  A
C1905      C1910   1.417       .  A
C1905     Br1912   1.925       .  S
C1906      C1907   1.412       .  A
C1907      C1908   1.410       .  A
C1907     Br1914   1.925       .  S
C1908      C1909   1.410       .  A
C1908     Br1913   1.925       .  S
C1909      C1910   1.413       .  A
C1910     Br1911   1.928       .  S
C1915      C1916   1.403       .  A
C1915      C1920   1.400       .  A
C1915     Br1922   1.927       .  S
C1916      C1917   1.406       .  A
C1917      C1918   1.395       .  A
C1917     Br1924   1.933       .  S
C1918      C1919   1.426       .  A
C1918     Br1923   1.941       .  S
C1919      C1920   1.426       .  A
C1920     Br1921   1.940       .  S
C1925      C1926   1.412       .  A
C1925      C1930   1.418       .  A
C1925     Br1932   1.924       .  S
C1926      C1927   1.412       .  A
C1927      C1928   1.410       .  A
C1927     Br1934   1.924       .  S
C1928      C1929   1.412       .  A
C1928     Br1933   1.925       .  S
C1929      C1930   1.417       .  A
C1930     Br1931   1.928       .  S
C1935      C1936   1.412       .  A
C1935      C1940   1.412       .  A
C1935     Br1942   1.929       .  S
C1936      C1937   1.410       .  A
C1937      C1938   1.386       .  A
C1937     Br1944   1.925       .  S
C1938      C1939   1.413       .  A
C1938     Br1943   1.944       .  S
C1939      C1940   1.421       .  A
C1940     Br1941   1.931       .  S
C1945      C1946   1.417       .  A
C1945      C1950   1.414       .  A
C1945     Br1952   1.929       .  S
C1946      C1947   1.417       .  A
C1947      C1948   1.420       .  A
C1947     Br1954   1.920       .  S
C1948      C1949   1.413       .  A
C1948     Br1953   1.930       .  S
C1949      C1950   1.408       .  A
C1950     Br1951   1.923       .  S
C1955      C1956   1.414       .  A
C1955      C1960   1.400       .  A
C1955     Br1962   1.933       .  S
C1956      C1957   1.417       .  A
C1957      C1958   1.406       .  A
C1957     Br1964   1.935       .  S
C1958      C1959   1.410       .  A
C1958     Br1963   1.926       .  S
C1959      C1960   1.407       .  A
C1960     Br1961   1.930       .  S
C1965      C1966   1.414       .  A
C1965      C1970   1.416       .  A
C1965     Br1972   1.916       .  S
C1966      C1967   1.419       .  A
C1967      C1968   1.421       .  A
C1967     Br1974   1.921       .  S
C1968      C1969   1.413       .  A
C1968     Br1973   1.927       .  S
C1969      C1970   1.419       .  A
C1970     Br1971   1.925       .  S
C1975      C1976   1.426       .  A
C1975      C1980   1.404       .  A
C1975     Br1982   1.923       .  S
C1976      C1977   1.424       .  A
C1977      C1978   1.391       .  A
C1977     Br1984   1.941       .  S
C1978      C1979   1.401       .  A
C1978     Br1983   1.920       .  S
C1979      C1980   1.401       .  A
C1980     Br1981   1.925       .  S
C1985      C1986   1.418       .  A
C1985      C1990   1.419       .  A
C1985     Br1992   1.926       .  S
C1986      C1987   1.412       .  A
C1987      C1988   1.409       .  A
C1987     Br1994   1.923       .  S
C1988      C1989   1.414       .  A
C1988     Br1993   1.924       .  S
C1989      C1990   1.412       .  A
C1990     Br1991   1.926       .  S
C1995      C1996   1.421       .  A
C1995      C2000   1.385       .  A
C1995     Br2002   1.942       .  S
C1996      C1997   1.420       .  A
C1997      C1998   1.404       .  A
C1997     Br2004   1.925       .  S
C1998      C1999   1.405       .  A
C1998     Br2003   1.923       .  S
C1999      C2000   1.400       .  A
C2000     Br2001   1.922       .  S
C2005      C2006   1.416       .  A
C2005      C2010   1.415       .  A
C2005     Br2012   1.928       .  S
C2006      C2007   1.414       .  A
C2007      C2008   1.417       .  A
C2007     Br2014   1.923       .  S
C2008      C2009   1.418       .  A
C2008     Br2013   1.936       .  S
C2009      C2010   1.413       .  A
C2010     Br2011   1.927       .  S
C2015      C2016   1.408       .  A
C2015      C2020   1.394       .  A
C2015     Br2022   1.936       .  S
C2016      C2017   1.409       .  A
C2017      C2018   1.404       .  A
C2017     Br2024   1.927       .  S
C2018      C2019   1.423       .  A
C2018     Br2023   1.938       .  S
C2019      C2020   1.423       .  A
C2020     Br2021   1.940       .  S
C2025      C2026   1.411       .  A
C2025      C2030   1.417       .  A
C2025     Br2032   1.929       .  S
C2026      C2027   1.417       .  A
C2027      C2028   1.419       .  A
C2027     Br2034   1.937       .  S
C2028      C2029   1.418       .  A
C2028     Br2033   1.919       .  S
C2029      C2030   1.422       .  A
C2030     Br2031   1.930       .  S
C2035      C2036   1.426       .  A
C2035      C2040   1.404       .  A
C2035     Br2042   1.939       .  S
C2036      C2037   1.425       .  A
C2037      C2038   1.397       .  A
C2037     Br2044   1.937       .  S
C2038      C2039   1.407       .  A
C2038     Br2043   1.935       .  S
C2039      C2040   1.408       .  A
C2040     Br2041   1.927       .  S
C2045      C2046   1.407       .  A
C2045      C2050   1.413       .  A
C2045     Br2052   1.923       .  S
C2046      C2047   1.412       .  A
C2047      C2048   1.418       .  A
C2047     Br2054   1.932       .  S
C2048      C2049   1.417       .  A
C2048     Br2053   1.919       .  S
C2049      C2050   1.419       .  A
C2050     Br2051   1.929       .  S
C2055      C2056   1.412       .  A
C2055      C2060   1.402       .  A
C2055     Br2062   1.925       .  S
C2056      C2057   1.416       .  A
C2057      C2058   1.399       .  A
C2057     Br2064   1.935       .  S
C2058      C2059   1.406       .  A
C2058     Br2063   1.926       .  S
C2059      C2060   1.407       .  A
C2060     Br2061   1.928       .  S
O2065      C2075   1.271       .  A
O2066      C2420   1.281   1_554  A
O2066     Cu2073   1.999       .  S
O2067      C2077   1.275   1_554  A
O2068      C2422   1.277   1_554  A
O2068     Cu2073   1.993       .  S
O2069      C2078   1.274       .  A
O2070      C2421   1.282       .  A
O2070     Cu2074   2.016       .  S
O2071      C2076   1.274       .  A
O2072      C2419   1.276       .  A
O2072     Cu2074   1.980       .  S
C2075      O2416   1.276   1_554  A
C2075      C2463   1.438       .  S
C2076      O2410   1.281       .  A
C2076      C2167   1.478       .  S
C2077      O2414   1.282       .  A
C2077      C2123   1.485       .  S
C2078      O2412   1.277       .  A
C2078      C2433   1.449       .  S
O2079      C2089   1.274   1_554  A
O2080      C2434   1.281   1_554  A
O2080     Cu2087   2.008       .  S
O2081      C2091   1.274   1_554  A
O2082      C2436   1.277   1_554  A
O2082     Cu2087   1.996       .  S
O2083      C2092   1.274       .  A
O2083     Cu2088   1.977       .  S
O2084      C2435   1.281       .  A
O2085      C2090   1.276       .  A
O2085     Cu2088   2.021       .  S
O2086      C2433   1.277       .  A
Cu2087    Cu2432   2.374   1_554  S
Cu2088    Cu2431   2.374       .  S
C2089      O2430   1.277       .  A
C2089      C2422   1.449       .  S
C2090      O2424   1.281       .  A
C2090      C2219   1.484       .  S
C2091      O2428   1.281       .  A
C2091      C2155   1.480       .  S
C2092      O2426   1.277       .  A
C2092      C2448   1.449       .  S
O2093      C2447   1.281       .  A
O2093     Cu2101   2.022       .  S
O2094      C2104   1.274   1_554  A
O2095      C2449   1.277       .  A
O2095     Cu2101   1.993       .  S
O2096      C2106   1.276   1_554  A
O2097      C2450   1.279       .  A
O2097     Cu2102   1.991   1_655  S
O2098      C2105   1.271       .  A
O2099      C2448   1.277       .  A
O2099     Cu2102   1.993   1_655  S
O2100      C2103   1.276       .  A
C2103      O2437   1.281       .  A
C2103      C2191   1.488       .  S
C2104      O2443   1.277       .  A
C2104      C2436   1.449       .  S
C2105      O2439   1.277       .  A
C2105      C2462   1.441       .  S
C2106      O2441   1.279       .  A
C2106      C2231   1.478       .  S
O2107      C2461   1.282       .  A
O2108      C2118   1.272       .  A
O2108     Cu2115   1.970       .  S
O2109      C2463   1.277       .  A
O2110      C2120   1.276       .  A
O2110     Cu2115   2.018       .  S
O2111      C2464   1.280       .  A
O2111     Cu2116   1.989       .  S
O2112      C2119   1.271       .  A
O2113      C2462   1.276       .  A
O2113     Cu2116   1.982       .  S
O2114      C2117   1.274       .  A
Cu2115    Cu2460   2.376   1_554  S
Cu2116    Cu2459   2.376       .  S
C2117      O2451   1.282       .  A
C2117      C2135   1.485       .  S
C2118      O2457   1.276   1_554  A
C2118      C2449   1.441       .  S
C2119      O2453   1.277       .  A
C2119      C2419   1.438       .  S
C2120      O2455   1.280   1_554  A
C2120      C2179   1.478   1_554  S
C2121      C2122   1.531       .  S
C2121      C2471   1.533       .  S
C2121      C2125   1.548       .  S
C2121      C2400   1.533       .  S
C2122      H2129   1.085       .  S
C2122      C2467   1.356       .  D
C2123      C2124   1.560   1_556  S
C2123      C2466   1.356       .  D
C2124      C2128   1.559       .  S
C2124      C2126   1.565   1_554  S
C2124      H2130   1.110       .  S
C2125      H2131   1.085       .  S
C2125      C2470   1.361       .  D
C2126      C2469   1.361       .  D
C2126      C2482   1.499   1_556  S
C2127      C2465   1.533   1_554  S
C2127      H2132   1.087       .  S
C2127      C2128   1.365       .  D
C2128      C2393   1.513       .  S
C2133      C2134   1.520       .  S
C2133      C2483   1.542   1_554  S
C2133      C2137   1.533       .  S
C2133      C2380   1.536       .  S
C2134      H2141   1.088       .  S
C2134      C2479   1.354       .  D
C2135      C2136   1.563       .  S
C2135      C2478   1.354       .  D
C2136      C2140   1.566       .  S
C2136      C2138   1.564       .  S
C2136      H2142   1.110       .  S
C2137      H2143   1.075       .  S
C2137      C2482   1.354       .  D
C2138      C2481   1.354       .  D
C2138      C2470   1.499       .  S
C2139      C2477   1.542       .  S
C2139      H2144   1.086       .  S
C2139      C2140   1.374       .  D
C2140      C2373   1.522       .  S
C2145      C2383   1.483       .  S
C2145      C2146   1.420       .  A
C2145      C2150   1.414       .  A
C2146      C2353   1.513       .  S
C2146      C2147   1.399       .  A
C2147      C2148   1.413       .  A
C2147      H2152   1.084       .  S
C2148      C2360   1.481       .  S
C2148      C2149   1.421       .  A
C2149      C2370   1.516       .  S
C2149      C2150   1.401       .  A
C2150      H2151   1.084       .  S
C2153      C2154   1.521       .  S
C2153      C2503   1.542       .  S
C2153      C2157   1.532       .  S
C2153      C2363   1.529       .  S
C2154      H2161   1.087       .  S
C2154      C2499   1.354       .  D
C2155      C2156   1.557   1_556  S
C2155      C2498   1.354       .  D
C2156      C2160   1.559       .  S
C2156      C2158   1.560   1_554  S
C2156      H2162   1.110       .  S
C2157      H2163   1.080       .  S
C2157      C2502   1.352       .  D
C2158      C2501   1.352       .  D
C2158      C2514   1.490   1_556  S
C2159      C2497   1.542   1_554  S
C2159      H2164   1.086       .  S
C2159      C2160   1.373       .  D
C2160      C2350   1.510       .  S
C2165      C2166   1.528       .  S
C2165      C2515   1.542   1_554  S
C2165      C2169   1.533       .  S
C2165      C2340   1.521       .  S
C2166      H2173   1.085       .  S
C2166      C2511   1.347   1_554  D
C2167      C2168   1.554       .  S
C2167      C2510   1.347       .  D
C2168      C2172   1.563       .  S
C2168      C2170   1.560       .  S
C2168      H2174   1.111       .  S
C2169      H2175   1.087       .  S
C2169      C2514   1.354       .  D
C2170      C2513   1.354       .  D
C2170      C2502   1.490       .  S
C2171      C2509   1.542       .  S
C2171      H2176   1.086       .  S
C2171      C2172   1.371       .  D
C2172      C2330   1.508       .  S
C2177      C2178   1.519       .  S
C2177      C2527   1.549       .  S
C2177      C2181   1.528       .  S
C2177      C2320   1.536       .  S
C2178      H2185   1.088       .  S
C2178      C2523   1.351       .  D
C2179      C2180   1.554   1_556  S
C2179      C2522   1.351       .  D
C2180      C2184   1.568       .  S
C2180      C2182   1.580       .  S
C2180      H2186   1.108       .  S
C2181      H2187   1.078       .  S
C2181      C2526   1.347       .  D
C2182      C2525   1.347   1_554  D
C2182      C2538   1.510       .  S
C2183      C2521   1.549   1_554  S
C2183      H2188   1.086       .  S
C2183      C2184   1.383       .  D
C2184      C2310   1.528       .  S
C2189      C2190   1.540       .  S
C2189      C2539   1.527   1_554  S
C2189      C2193   1.540       .  S
C2189      C2300   1.537       .  S
C2190      H2197   1.086       .  S
C2190      C2535   1.361       .  D
C2191      C2192   1.556       .  S
C2191      C2534   1.361       .  D
C2192      C2196   1.568       .  S
C2192      C2194   1.571       .  S
C2192      H2198   1.110       .  S
C2193      H2199   1.074       .  S
C2193      C2538   1.355       .  D
C2194      C2537   1.355       .  D
C2194      C2526   1.510       .  S
C2195      C2533   1.527       .  S
C2195      H2200   1.087       .  S
C2195      C2196   1.363       .  D
C2196      C2290   1.512       .  S
C2201      C2293   1.512       .  S
C2201      C2202   1.422       .  A
C2201      C2206   1.403       .  A
C2202      C2403   1.476       .  S
C2202      C2203   1.409       .  A
C2203      C2204   1.401       .  A
C2203      H2208   1.084       .  S
C2204      C2390   1.509       .  S
C2204      C2205   1.422       .  A
C2205      C2303   1.480       .  S
C2205      C2206   1.412       .  A
C2206      H2207   1.084       .  S
C2209      C2270   1.508       .  S
C2209      C2210   1.412       .  A
C2209      C2214   1.395       .  A
C2210      C2323   1.472       .  S
C2210      C2211   1.412       .  A
C2211      C2212   1.406       .  A
C2211      H2216   1.084       .  S
C2212      C2313   1.521       .  S
C2212      C2213   1.426       .  A
C2213      C2280   1.480       .  S
C2213      C2214   1.416       .  A
C2214      H2215   1.084       .  S
C2217      C2218   1.535       .  S
C2217      C2567   1.542       .  S
C2217      C2221   1.528       .  S
C2217      C2283   1.523       .  S
C2218      H2225   1.087       .  S
C2218      C2563   1.354       .  D
C2219      C2220   1.555       .  S
C2219      C2562   1.354       .  D
C2220      C2224   1.559       .  S
C2220      C2222   1.563       .  S
C2220      H2226   1.110       .  S
C2221      H2227   1.083       .  S
C2221      C2566   1.351       .  D
C2222      C2565   1.351       .  D
C2222      C2578   1.491       .  S
C2223      C2561   1.542       .  S
C2223      H2228   1.084       .  S
C2223      C2224   1.368       .  D
C2224      C2273   1.505       .  S
C2229      C2230   1.525       .  S
C2229      C2579   1.543       .  S
C2229      C2233   1.530       .  S
C2229      C2263   1.528       .  S
C2230      H2237   1.088       .  S
C2230      C2575   1.354       .  D
C2231      C2232   1.550   1_556  S
C2231      C2574   1.354       .  D
C2232      C2236   1.555       .  S
C2232      C2234   1.563   1_554  S
C2232      H2238   1.110       .  S
C2233      H2239   1.077       .  S
C2233      C2578   1.352       .  D
C2234      C2577   1.352       .  D
C2234      C2566   1.491   1_556  S
C2235      C2573   1.543       .  S
C2235      H2240   1.086       .  S
C2235      C2236   1.368   1_556  D
C2236      C2253   1.498       .  S
C2241      C2250   1.506       .  S
C2241      C2242   1.414       .  A
C2241      C2246   1.395       .  A
C2242      C2343   1.465       .  S
C2242      C2243   1.410       .  A
C2243      C2244   1.398       .  A
C2243      H2248   1.085       .  S
C2244      C2333   1.512       .  S
C2244      C2245   1.422       .  A
C2245      C2260   1.473       .  S
C2245      C2246   1.414       .  A
C2246      H2247   1.084       .  S
C2249      C2250   1.413       .  A
C2249      C2254   1.417       .  A
C2249     Br2256   1.925       .  S
C2250      C2251   1.412       .  A
C2251      C2252   1.410       .  A
C2251     Br2258   1.925       .  S
C2252      C2253   1.410       .  A
C2252     Br2257   1.925       .  S
C2253      C2254   1.413       .  A
C2254     Br2255   1.928       .  S
C2259      C2260   1.403       .  A
C2259      C2264   1.400       .  A
C2259     Br2266   1.927       .  S
C2260      C2261   1.406       .  A
C2261      C2262   1.395       .  A
C2261     Br2268   1.933       .  S
C2262      C2263   1.426       .  A
C2262     Br2267   1.941       .  S
C2263      C2264   1.426       .  A
C2264     Br2265   1.940       .  S
C2269      C2270   1.412       .  A
C2269      C2274   1.418       .  A
C2269     Br2276   1.924       .  S
C2270      C2271   1.412       .  A
C2271      C2272   1.410       .  A
C2271     Br2278   1.924       .  S
C2272      C2273   1.412       .  A
C2272     Br2277   1.925       .  S
C2273      C2274   1.417       .  A
C2274     Br2275   1.928       .  S
C2279      C2280   1.412       .  A
C2279      C2284   1.412       .  A
C2279     Br2286   1.929       .  S
C2280      C2281   1.410       .  A
C2281      C2282   1.386       .  A
C2281     Br2288   1.925       .  S
C2282      C2283   1.413       .  A
C2282     Br2287   1.944       .  S
C2283      C2284   1.421       .  A
C2284     Br2285   1.931       .  S
C2289      C2290   1.417       .  A
C2289      C2294   1.414       .  A
C2289     Br2296   1.929       .  S
C2290      C2291   1.417       .  A
C2291      C2292   1.420       .  A
C2291     Br2298   1.920       .  S
C2292      C2293   1.413       .  A
C2292     Br2297   1.930       .  S
C2293      C2294   1.408       .  A
C2294     Br2295   1.923       .  S
C2299      C2300   1.414       .  A
C2299      C2304   1.400       .  A
C2299     Br2306   1.933       .  S
C2300      C2301   1.417       .  A
C2301      C2302   1.406       .  A
C2301     Br2308   1.935       .  S
C2302      C2303   1.410       .  A
C2302     Br2307   1.926       .  S
C2303      C2304   1.407       .  A
C2304     Br2305   1.930       .  S
C2309      C2310   1.414       .  A
C2309      C2314   1.416       .  A
C2309     Br2316   1.916       .  S
C2310      C2311   1.419       .  A
C2311      C2312   1.421       .  A
C2311     Br2318   1.921       .  S
C2312      C2313   1.413       .  A
C2312     Br2317   1.927       .  S
C2313      C2314   1.419       .  A
C2314     Br2315   1.925       .  S
C2319      C2320   1.426       .  A
C2319      C2324   1.404       .  A
C2319     Br2326   1.923       .  S
C2320      C2321   1.424       .  A
C2321      C2322   1.391       .  A
C2321     Br2328   1.941       .  S
C2322      C2323   1.401       .  A
C2322     Br2327   1.920       .  S
C2323      C2324   1.401       .  A
C2324     Br2325   1.925       .  S
C2329      C2330   1.418       .  A
C2329      C2334   1.419       .  A
C2329     Br2336   1.926       .  S
C2330      C2331   1.412       .  A
C2331      C2332   1.409       .  A
C2331     Br2338   1.923       .  S
C2332      C2333   1.414       .  A
C2332     Br2337   1.924       .  S
C2333      C2334   1.412       .  A
C2334     Br2335   1.926       .  S
C2339      C2340   1.421       .  A
C2339      C2344   1.385       .  A
C2339     Br2346   1.942       .  S
C2340      C2341   1.420       .  A
C2341      C2342   1.404       .  A
C2341     Br2348   1.925       .  S
C2342      C2343   1.405       .  A
C2342     Br2347   1.923       .  S
C2343      C2344   1.400       .  A
C2344     Br2345   1.922       .  S
C2349      C2350   1.416       .  A
C2349      C2354   1.415       .  A
C2349     Br2356   1.928       .  S
C2350      C2351   1.414       .  A
C2351      C2352   1.417       .  A
C2351     Br2358   1.923       .  S
C2352      C2353   1.418       .  A
C2352     Br2357   1.936       .  S
C2353      C2354   1.413       .  A
C2354     Br2355   1.927       .  S
C2359      C2360   1.408       .  A
C2359      C2364   1.394       .  A
C2359     Br2366   1.936       .  S
C2360      C2361   1.409       .  A
C2361      C2362   1.404       .  A
C2361     Br2368   1.927       .  S
C2362      C2363   1.423       .  A
C2362     Br2367   1.938       .  S
C2363      C2364   1.423       .  A
C2364     Br2365   1.940       .  S
C2369      C2370   1.411       .  A
C2369      C2374   1.417       .  A
C2369     Br2376   1.929       .  S
C2370      C2371   1.417       .  A
C2371      C2372   1.419       .  A
C2371     Br2378   1.937       .  S
C2372      C2373   1.418       .  A
C2372     Br2377   1.919       .  S
C2373      C2374   1.422       .  A
C2374     Br2375   1.930       .  S
C2379      C2380   1.426       .  A
C2379      C2384   1.404       .  A
C2379     Br2386   1.939       .  S
C2380      C2381   1.425       .  A
C2381      C2382   1.397       .  A
C2381     Br2388   1.937       .  S
C2382      C2383   1.407       .  A
C2382     Br2387   1.935       .  S
C2383      C2384   1.408       .  A
C2384     Br2385   1.927       .  S
C2389      C2390   1.407       .  A
C2389      C2394   1.413       .  A
C2389     Br2396   1.923       .  S
C2390      C2391   1.412       .  A
C2391      C2392   1.418       .  A
C2391     Br2398   1.932       .  S
C2392      C2393   1.417       .  A
C2392     Br2397   1.919       .  S
C2393      C2394   1.419       .  A
C2394     Br2395   1.929       .  S
C2399      C2400   1.412       .  A
C2399      C2404   1.402       .  A
C2399     Br2406   1.925       .  S
C2400      C2401   1.416       .  A
C2401      C2402   1.399       .  A
C2401     Br2408   1.935       .  S
C2402      C2403   1.406       .  A
C2402     Br2407   1.926       .  S
C2403      C2404   1.407       .  A
C2404     Br2405   1.928       .  S
O2409      C2419   1.271       .  A
O2410     Cu2417   1.999       .  S
O2411      C2421   1.275       .  A
O2412     Cu2417   1.993       .  S
O2413      C2422   1.274       .  A
O2414     Cu2418   2.016       .  S
O2415      C2420   1.274       .  A
O2416     Cu2418   1.980       .  S
C2420      C2511   1.478       .  S
C2421      C2467   1.485       .  S
O2423      C2433   1.274       .  A
O2424     Cu2431   2.008       .  S
O2425      C2435   1.274       .  A
O2426     Cu2431   1.996       .  S
O2427      C2436   1.274       .  A
O2427     Cu2432   1.977       .  S
O2429      C2434   1.276       .  A
O2429     Cu2432   2.021       .  S
C2434      C2563   1.484   1_556  S
C2435      C2499   1.480       .  S
O2437     Cu2445   2.022       .  S
O2438      C2448   1.274       .  A
O2439     Cu2445   1.993       .  S
O2440      C2450   1.276       .  A
O2441     Cu2446   1.991   1_655  S
O2442      C2449   1.271   1_556  A
O2443     Cu2446   1.993   1_655  S
O2444      C2447   1.276   1_556  A
C2447      C2535   1.488       .  S
C2450      C2575   1.478       .  S
O2452      C2462   1.272       .  A
O2452     Cu2459   1.970       .  S
O2454      C2464   1.276       .  A
O2454     Cu2459   2.018       .  S
O2455     Cu2460   1.989       .  S
O2456      C2463   1.271   1_556  A
O2457     Cu2460   1.982       .  S
O2458      C2461   1.274   1_556  A
C2461      C2479   1.485       .  S
C2464      C2523   1.478       .  S
C2465      C2466   1.531       .  S
C2465      C2469   1.548       .  S
C2465      C2744   1.533       .  S
C2466      H2473   1.085       .  S
C2467      C2468   1.560       .  S
C2468      C2472   1.559       .  S
C2468      C2470   1.565       .  S
C2468      H2474   1.110       .  S
C2469      H2475   1.085       .  S
C2471      H2476   1.087       .  S
C2471      C2472   1.365       .  D
C2472      C2737   1.513       .  S
C2477      C2478   1.520       .  S
C2477      C2481   1.533       .  S
C2477      C2724   1.536       .  S
C2478      H2485   1.088       .  S
C2479      C2480   1.563   1_554  S
C2480      C2484   1.566       .  S
C2480      C2482   1.564   1_556  S
C2480      H2486   1.110       .  S
C2481      H2487   1.075       .  S
C2483      H2488   1.086       .  S
C2483      C2484   1.374       .  D
C2484      C2717   1.522       .  S
C2489      C2727   1.483       .  S
C2489      C2490   1.420       .  A
C2489      C2494   1.414       .  A
C2490      C2697   1.513       .  S
C2490      C2491   1.399       .  A
C2491      C2492   1.413       .  A
C2491      H2496   1.084       .  S
C2492      C2704   1.481       .  S
C2492      C2493   1.421       .  A
C2493      C2714   1.516       .  S
C2493      C2494   1.401       .  A
C2494      H2495   1.084       .  S
C2497      C2498   1.521       .  S
C2497      C2501   1.532       .  S
C2497      C2707   1.529       .  S
C2498      H2505   1.087       .  S
C2499      C2500   1.557       .  S
C2500      C2504   1.559       .  S
C2500      C2502   1.560       .  S
C2500      H2506   1.110       .  S
C2501      H2507   1.080       .  S
C2503      H2508   1.086       .  S
C2503      C2504   1.373       .  D
C2504      C2694   1.510       .  S
C2509      C2510   1.528       .  S
C2509      C2513   1.533       .  S
C2509      C2684   1.521       .  S
C2510      H2517   1.085       .  S
C2511      C2512   1.554       .  S
C2512      C2516   1.563       .  S
C2512      C2514   1.560   1_556  S
C2512      H2518   1.111       .  S
C2513      H2519   1.087       .  S
C2515      H2520   1.086       .  S
C2515      C2516   1.371       .  D
C2516      C2674   1.508       .  S
C2521      C2522   1.519       .  S
C2521      C2525   1.528       .  S
C2521      C2664   1.536       .  S
C2522      H2529   1.088       .  S
C2523      C2524   1.554       .  S
C2524      C2528   1.568       .  S
C2524      C2526   1.580       .  S
C2524      H2530   1.108       .  S
C2525      H2531   1.078       .  S
C2527      H2532   1.086       .  S
C2527      C2528   1.383       .  D
C2528      C2654   1.528       .  S
C2533      C2534   1.540       .  S
C2533      C2537   1.540       .  S
C2533      C2644   1.537       .  S
C2534      H2541   1.086       .  S
C2535      C2536   1.556   1_554  S
C2536      C2540   1.568       .  S
C2536      C2538   1.571   1_556  S
C2536      H2542   1.110       .  S
C2537      H2543   1.074       .  S
C2539      H2544   1.087       .  S
C2539      C2540   1.363       .  D
C2540      C2634   1.512       .  S
C2545      C2637   1.512       .  S
C2545      C2546   1.422       .  A
C2545      C2550   1.403       .  A
C2546      C2747   1.476       .  S
C2546      C2547   1.409       .  A
C2547      C2548   1.401       .  A
C2547      H2552   1.084       .  S
C2548      C2734   1.509       .  S
C2548      C2549   1.422       .  A
C2549      C2647   1.480       .  S
C2549      C2550   1.412       .  A
C2550      H2551   1.084       .  S
C2553      C2614   1.508       .  S
C2553      C2554   1.412       .  A
C2553      C2558   1.395       .  A
C2554      C2667   1.472       .  S
C2554      C2555   1.412       .  A
C2555      C2556   1.406       .  A
C2555      H2560   1.084       .  S
C2556      C2657   1.521       .  S
C2556      C2557   1.426       .  A
C2557      C2624   1.480       .  S
C2557      C2558   1.416       .  A
C2558      H2559   1.084       .  S
C2561      C2562   1.535       .  S
C2561      C2565   1.528       .  S
C2561      C2627   1.523       .  S
C2562      H2569   1.087       .  S
C2563      C2564   1.555   1_554  S
C2564      C2568   1.559       .  S
C2564      C2566   1.563   1_556  S
C2564      H2570   1.110       .  S
C2565      H2571   1.083       .  S
C2567      H2572   1.084   1_554  S
C2567      C2568   1.368   1_554  D
C2568      C2617   1.505       .  S
C2573      C2574   1.525       .  S
C2573      C2577   1.530       .  S
C2573      C2607   1.528       .  S
C2574      H2581   1.088       .  S
C2575      C2576   1.550       .  S
C2576      C2580   1.555       .  S
C2576      C2578   1.563       .  S
C2576      H2582   1.110       .  S
C2577      H2583   1.077       .  S
C2579      H2584   1.086       .  S
C2579      C2580   1.368       .  D
C2580      C2597   1.498       .  S
C2585      C2594   1.506       .  S
C2585      C2586   1.414       .  A
C2585      C2590   1.395       .  A
C2586      C2687   1.465       .  S
C2586      C2587   1.410       .  A
C2587      C2588   1.398       .  A
C2587      H2592   1.085       .  S
C2588      C2677   1.512       .  S
C2588      C2589   1.422       .  A
C2589      C2604   1.473       .  S
C2589      C2590   1.414       .  A
C2590      H2591   1.084       .  S
C2593      C2594   1.413       .  A
C2593      C2598   1.417       .  A
C2593     Br2600   1.925       .  S
C2594      C2595   1.412       .  A
C2595      C2596   1.410       .  A
C2595     Br2602   1.925       .  S
C2596      C2597   1.410       .  A
C2596     Br2601   1.925       .  S
C2597      C2598   1.413       .  A
C2598     Br2599   1.928       .  S
C2603      C2604   1.403       .  A
C2603      C2608   1.400       .  A
C2603     Br2610   1.927       .  S
C2604      C2605   1.406       .  A
C2605      C2606   1.395       .  A
C2605     Br2612   1.933       .  S
C2606      C2607   1.426       .  A
C2606     Br2611   1.941       .  S
C2607      C2608   1.426       .  A
C2608     Br2609   1.940       .  S
C2613      C2614   1.412       .  A
C2613      C2618   1.418       .  A
C2613     Br2620   1.924       .  S
C2614      C2615   1.412       .  A
C2615      C2616   1.410       .  A
C2615     Br2622   1.924       .  S
C2616      C2617   1.412       .  A
C2616     Br2621   1.925       .  S
C2617      C2618   1.417       .  A
C2618     Br2619   1.928       .  S
C2623      C2624   1.412       .  A
C2623      C2628   1.412       .  A
C2623     Br2630   1.929       .  S
C2624      C2625   1.410       .  A
C2625      C2626   1.386       .  A
C2625     Br2632   1.925       .  S
C2626      C2627   1.413       .  A
C2626     Br2631   1.944       .  S
C2627      C2628   1.421       .  A
C2628     Br2629   1.931       .  S
C2633      C2634   1.417       .  A
C2633      C2638   1.414       .  A
C2633     Br2640   1.929       .  S
C2634      C2635   1.417       .  A
C2635      C2636   1.420       .  A
C2635     Br2642   1.920       .  S
C2636      C2637   1.413       .  A
C2636     Br2641   1.930       .  S
C2637      C2638   1.408       .  A
C2638     Br2639   1.923       .  S
C2643      C2644   1.414       .  A
C2643      C2648   1.400       .  A
C2643     Br2650   1.933       .  S
C2644      C2645   1.417       .  A
C2645      C2646   1.406       .  A
C2645     Br2652   1.935       .  S
C2646      C2647   1.410       .  A
C2646     Br2651   1.926       .  S
C2647      C2648   1.407       .  A
C2648     Br2649   1.930       .  S
C2653      C2654   1.414       .  A
C2653      C2658   1.416       .  A
C2653     Br2660   1.916       .  S
C2654      C2655   1.419       .  A
C2655      C2656   1.421       .  A
C2655     Br2662   1.921       .  S
C2656      C2657   1.413       .  A
C2656     Br2661   1.927       .  S
C2657      C2658   1.419       .  A
C2658     Br2659   1.925       .  S
C2663      C2664   1.426       .  A
C2663      C2668   1.404       .  A
C2663     Br2670   1.923       .  S
C2664      C2665   1.424       .  A
C2665      C2666   1.391       .  A
C2665     Br2672   1.941       .  S
C2666      C2667   1.401       .  A
C2666     Br2671   1.920       .  S
C2667      C2668   1.401       .  A
C2668     Br2669   1.925       .  S
C2673      C2674   1.418       .  A
C2673      C2678   1.419       .  A
C2673     Br2680   1.926       .  S
C2674      C2675   1.412       .  A
C2675      C2676   1.409       .  A
C2675     Br2682   1.923       .  S
C2676      C2677   1.414       .  A
C2676     Br2681   1.924       .  S
C2677      C2678   1.412       .  A
C2678     Br2679   1.926       .  S
C2683      C2684   1.421       .  A
C2683      C2688   1.385       .  A
C2683     Br2690   1.942       .  S
C2684      C2685   1.420       .  A
C2685      C2686   1.404       .  A
C2685     Br2692   1.925       .  S
C2686      C2687   1.405       .  A
C2686     Br2691   1.923       .  S
C2687      C2688   1.400       .  A
C2688     Br2689   1.922       .  S
C2693      C2694   1.416       .  A
C2693      C2698   1.415       .  A
C2693     Br2700   1.928       .  S
C2694      C2695   1.414       .  A
C2695      C2696   1.417       .  A
C2695     Br2702   1.923       .  S
C2696      C2697   1.418       .  A
C2696     Br2701   1.936       .  S
C2697      C2698   1.413       .  A
C2698     Br2699   1.927       .  S
C2703      C2704   1.408       .  A
C2703      C2708   1.394       .  A
C2703     Br2710   1.936       .  S
C2704      C2705   1.409       .  A
C2705      C2706   1.404       .  A
C2705     Br2712   1.927       .  S
C2706      C2707   1.423       .  A
C2706     Br2711   1.938       .  S
C2707      C2708   1.423       .  A
C2708     Br2709   1.940       .  S
C2713      C2714   1.411       .  A
C2713      C2718   1.417       .  A
C2713     Br2720   1.929       .  S
C2714      C2715   1.417       .  A
C2715      C2716   1.419       .  A
C2715     Br2722   1.937       .  S
C2716      C2717   1.418       .  A
C2716     Br2721   1.919       .  S
C2717      C2718   1.422       .  A
C2718     Br2719   1.930       .  S
C2723      C2724   1.426       .  A
C2723      C2728   1.404       .  A
C2723     Br2730   1.939       .  S
C2724      C2725   1.425       .  A
C2725      C2726   1.397       .  A
C2725     Br2732   1.937       .  S
C2726      C2727   1.407       .  A
C2726     Br2731   1.935       .  S
C2727      C2728   1.408       .  A
C2728     Br2729   1.927       .  S
C2733      C2734   1.407       .  A
C2733      C2738   1.413       .  A
C2733     Br2740   1.923       .  S
C2734      C2735   1.412       .  A
C2735      C2736   1.418       .  A
C2735     Br2742   1.932       .  S
C2736      C2737   1.417       .  A
C2736     Br2741   1.919       .  S
C2737      C2738   1.419       .  A
C2738     Br2739   1.929       .  S
C2743      C2744   1.412       .  A
C2743      C2748   1.402       .  A
C2743     Br2750   1.925       .  S
C2744      C2745   1.416       .  A
C2745      C2746   1.399       .  A
C2745     Br2752   1.935       .  S
C2746      C2747   1.406       .  A
C2746     Br2751   1.926       .  S
C2747      C2748   1.407       .  A
C2748     Br2749   1.928       .  S
