geometry optimzed in LAMMPS
_audit_creation_date              2020-12-01 
_audit_creation_method            'lammps2cif' 
_symmetry_space_group_name_H-M    'P1' 
_symmetry_Int_Tables_number       1 
_symmetry_cell_setting            triclinic 
loop_ 
_symmetry_equiv_pos_as_xyz 
  x,y,z 
_cell_length_a                    36.49897912 
_cell_length_b                    33.980308884625245 
_cell_length_c                    30.22825101117226 
_cell_angle_alpha                 90.01861634296108 
_cell_angle_beta                  89.97336655345362 
_cell_angle_gamma                 90.00324878280568 
loop_ 
_atom_site_label 
_atom_site_type_symbol 
_atom_site_fract_x 
_atom_site_fract_y 
_atom_site_fract_z 
_atom_site_charge 
C1          C  0.09302629  0.32924072  0.37498120     0.04300
C2          C  0.11258855  0.01765346  0.40666437    -0.11900
C3          C  0.15101515  0.01767568  0.40692198     0.01800
C4          C  0.17010670  0.99560977  0.37509975    -0.10400
C5          C  0.15096500  0.30701954  0.34320412     0.04300
C6          C  0.11251785  0.30732023  0.34334163    -0.09800
H7          H  0.09788468  0.03382584  0.43195698     0.09900
H8          H  0.19979821  0.99551338  0.37514147     0.07400
H9          H  0.09776631  0.29124416  0.31801607     0.07200
C10         C  0.81693056  0.33162282  0.37581218     0.04300
C11         C  0.79744644  0.30932246  0.40687814    -0.11900
C12         C  0.75902035  0.30941256  0.40698460     0.01800
C13         C  0.74007214  0.33164952  0.37522240    -0.10400
C14         C  0.75937806  0.02054522  0.34371532     0.04300
C15         C  0.79781860  0.02064867  0.34443636    -0.09800
H16         H  0.81229033  0.29211296  0.43116746     0.09900
H17         H  0.71037056  0.33161606  0.37499214     0.07400
H18         H  0.81295153  0.03773913  0.32028130     0.07200
O19         O  0.20800175  0.19515755  0.20487143    -0.70600
O20         O  0.15746007  0.25279996  0.29378907    -0.70900
O21         O  0.15776297  0.25289270  0.20554048    -0.70700
O22         O  0.20738486  0.19460980  0.29399366    -0.70700
O23         O  0.25144584  0.23765166  0.29382801    -0.70700
O24         O  0.20154898  0.29624452  0.20551431    -0.70700
O25         O  0.20152461  0.29579712  0.29481955    -0.70600
O26         O  0.25178329  0.23849908  0.20580436    -0.70800
V27         V  0.18355884  0.22464444  0.24956143     1.35200
V28         V  0.22564276  0.26628969  0.25000074     1.35200
C29         C  0.23863492  0.20699715  0.19039081     0.78600
C30         C  0.17087337  0.28421584  0.30933144     0.78700
C31         C  0.17107530  0.28447685  0.19055503     0.78500
C32         C  0.23801010  0.20600542  0.30865359     0.78500
C33         C  0.31595039  0.16280293  0.37529188     0.04300
C34         C  0.29613860  0.14319443  0.40861887    -0.11900
C35         C  0.25776398  0.14177765  0.40771122     0.01800
C36         C  0.23863329  0.16230558  0.37486748    -0.10400
C37         C  0.25780063  0.18307447  0.34222681     0.04300
C38         C  0.29619345  0.18213992  0.34173864    -0.09800
H39         H  0.31031961  0.12954737  0.43605898     0.09900
H40         H  0.20894490  0.16214158  0.37473381     0.07400
H41         H  0.31044906  0.19599075  0.31447381     0.07200
C42         C  0.59421971  0.16442626  0.37520791     0.04300
C43         C  0.61403224  0.14468956  0.34198177    -0.11900
C44         C  0.65245134  0.14393256  0.34246773     0.01800
C45         C  0.67150170  0.16475941  0.37516334    -0.10400
C46         C  0.65228504  0.18541282  0.40787936     0.04300
C47         C  0.61388298  0.18433674  0.40840185    -0.09800
H48         H  0.59975630  0.13042364  0.31500367     0.09900
H49         H  0.70120360  0.16488154  0.37515962     0.07400
H50         H  0.59951138  0.19845252  0.43541734     0.07200
O51         O  0.70256508  0.19759639  0.04521221    -0.70600
O52         O  0.75249258  0.25517560  0.45603952    -0.70900
O53         O  0.75258449  0.25563732  0.04418555    -0.70700
O54         O  0.70272002  0.19695749  0.45611897    -0.70700
O55         O  0.65859380  0.23991710  0.45642631    -0.70700
O56         O  0.70863134  0.29878493  0.04444733    -0.70700
O57         O  0.70839720  0.29814434  0.45519652    -0.70600
O58         O  0.65858823  0.24071575  0.04445285    -0.70800
V59         V  0.72667434  0.22711837  0.00039699     1.35200
V60         V  0.68447650  0.26863194  0.00013495     1.35200
C61         C  0.67190066  0.20923490  0.05972953     0.78600
C62         C  0.73902626  0.28656255  0.44060327     0.78700
C63         C  0.73926513  0.28726080  0.05913229     0.78500
C64         C  0.67205934  0.20832314  0.44150970     0.78500
C65         C  0.31679417  0.16294250  0.12438957     0.04300
C66         C  0.29728627  0.14069388  0.09311604    -0.11900
C67         C  0.25878101  0.14077384  0.09289903     0.01800
C68         C  0.23972511  0.16258097  0.12482847    -0.10400
C69         C  0.25881224  0.18456862  0.15655322     0.04300
C70         C  0.29731593  0.18502711  0.15587329    -0.09800
H71         H  0.31211914  0.12352511  0.06875092     0.09900
H72         H  0.21002285  0.16242508  0.12499458     0.07400
H73         H  0.31218066  0.20230231  0.18009305     0.07200
C74         C  0.59381569  0.16419260  0.12498142     0.04300
C75         C  0.61336297  0.18614365  0.09338734    -0.11900
C76         C  0.65184773  0.18653468  0.09337768     0.01800
C77         C  0.67100368  0.16491599  0.12531457    -0.10400
C78         C  0.65199630  0.14291798  0.15707315     0.04300
C79         C  0.61350007  0.14259137  0.15673398    -0.09800
H80         H  0.59865147  0.20214762  0.06797999     0.09900
H81         H  0.70071435  0.16517569  0.12541560     0.07400
H82         H  0.59887229  0.12627844  0.18197335     0.07200
O83         O  0.70927956  0.03100189  0.20568790    -0.70600
O84         O  0.65907571  0.08947524  0.29391946    -0.70900
O85         O  0.65905338  0.08877711  0.20593135    -0.70700
O86         O  0.70908448  0.03149972  0.29500533    -0.70700
O87         O  0.75308659  0.07457913  0.29417826    -0.70700
O88         O  0.70281773  0.13214747  0.20520066    -0.70700
O89         O  0.70306065  0.13260239  0.29430997    -0.70600
O90         O  0.75307328  0.07433837  0.20588162    -0.70800
V91         V  0.68506524  0.06094256  0.25013847     1.35200
V92         V  0.72711345  0.10263154  0.24988928     1.35200
C93         C  0.73977222  0.04276099  0.19078132     0.78600
C94         C  0.67240415  0.12111464  0.30887123     0.78700
C95         C  0.67219658  0.12035766  0.19070410     0.78500
C96         C  0.73963030  0.04320084  0.30969855     0.78500
O97         O  0.15743896  0.07188477  0.45629509    -0.70600
O98         O  0.20791512  0.12987023  0.04486998    -0.70900
O99         O  0.20727083  0.13012301  0.45579402    -0.70700
O100        O  0.15775778  0.07207640  0.04455133    -0.70700
O101        O  0.20153628  0.02872424  0.04463892    -0.70700
O102        O  0.25141574  0.08718337  0.45610439    -0.70700
O103        O  0.25171795  0.08655017  0.04409898    -0.70600
O104        O  0.20155601  0.02895347  0.45529607    -0.70800
V105        V  0.18349822  0.10019854  0.00036644     1.35200
V106        V  0.22562082  0.05860077  0.00002585     1.35200
C107        C  0.17090253  0.04048097  0.44078014     0.78600
C108        C  0.23856713  0.11812477  0.05933165     0.78700
C109        C  0.23794075  0.11877790  0.44120521     0.78500
C110        C  0.17108419  0.04054676  0.05964439     0.78500
C111        C  0.09325841  0.32960455  0.12550501     0.04300
C112        C  0.11265493  0.30692387  0.15638188    -0.11900
C113        C  0.15113088  0.30713049  0.15681391     0.01800
C114        C  0.17026362  0.99581775  0.12509729    -0.10400
C115        C  0.15115758  0.01805424  0.09357444     0.04300
C116        C  0.11269990  0.01870197  0.09442338    -0.09800
H117        H  0.09773932  0.29000681  0.18088746     0.09900
H118        H  0.19995993  0.99565239  0.12494983     0.07400
H119        H  0.09779842  0.03578168  0.07005776     0.07200
C120        C  0.81724716  0.33191149  0.12423011     0.04300
C121        C  0.79809304  0.02029665  0.15614693    -0.11900
C122        C  0.75962420  0.02020357  0.15677388     0.01800
C123        C  0.74036514  0.33183744  0.12482218    -0.10400
C124        C  0.75934940  0.31015620  0.09260953     0.04300
C125        C  0.79782155  0.31018433  0.09260739    -0.09800
H126        H  0.81321513  0.03689924  0.18074357     0.09900
H127        H  0.71067237  0.33176060  0.12507202     0.07400
H128        H  0.81273485  0.29345824  0.06790334     0.07200
C129        C  0.99503035  0.03248647  0.12788840     0.13800
C130        C  0.97538596  0.33034637  0.12489939     0.00800
C131        C  0.99465423  0.29460137  0.12238988     0.15700
C132        C  0.03298508  0.29433140  0.12277684     0.25200
C133        C  0.05267134  0.32982990  0.12560034    -0.41200
C134        C  0.03335706  0.03224367  0.12822503     0.32200
C135        C  0.93481292  0.33063621  0.12456936     0.00800
F136        F  0.97629692  0.26000562  0.11863038    -0.13500
F137        F  0.05163938  0.06687103  0.13216696    -0.14000
C138        C  0.91563906  0.01687469  0.09074009     0.15800
C139        C  0.87729791  0.01713217  0.09049552     0.25200
C140        C  0.85765440  0.33150603  0.12428111    -0.41100
C141        C  0.87673665  0.31203247  0.15812920     0.32100
C142        C  0.91505718  0.31143378  0.15818158     0.13800
F143        F  0.93409241  0.03528711  0.05767418    -0.13500
F144        F  0.85816630  0.29319856  0.19079446    -0.14000
F145        F  0.85928417  0.03630144  0.05764467    -0.16300
F146        F  0.93293059  0.29259461  0.19138299    -0.14800
F147        F  0.97702831  0.06731954  0.13136993    -0.14800
F148        F  0.05091357  0.25945843  0.11923557    -0.16300
C149        C  0.49508230  0.12815067  0.12995426     0.13800
C150        C  0.47545930  0.16332716  0.12433509     0.00800
C151        C  0.49471253  0.19876490  0.11896073     0.15700
C152        C  0.53306076  0.19913915  0.11957258     0.25200
C153        C  0.55296199  0.16386671  0.12480952    -0.41200
C154        C  0.53344661  0.12831138  0.12983451     0.32200
C155        C  0.43487567  0.16310140  0.12426266     0.00800
F156        F  0.47627543  0.23318976  0.11404455    -0.13500
F157        F  0.55144999  0.09349668  0.13345950    -0.14000
C158        C  0.41543781  0.15344646  0.16288367     0.15800
C159        C  0.37707625  0.15356365  0.16298942     0.25200
C160        C  0.35749002  0.16298616  0.12430186    -0.41100
C161        C  0.37704842  0.17242822  0.08556717     0.32100
C162        C  0.41542071  0.17268172  0.08564397     0.13800
F163        F  0.43368957  0.14436559  0.20065906    -0.13500
F164        F  0.35897989  0.18218679  0.04787665    -0.14000
F165        F  0.35903518  0.14372768  0.20069345    -0.16300
F166        F  0.43366534  0.18191112  0.04788563    -0.14800
F167        F  0.47700337  0.09348104  0.13468735    -0.16800
F168        F  0.55066847  0.23421337  0.11625724    -0.16300
C169        C  0.49530578  0.13085857  0.36040802     0.13800
C170        C  0.47552038  0.16374771  0.37556117     0.00800
C171        C  0.49503119  0.19685396  0.39061106     0.15700
C172        C  0.53327327  0.19766803  0.38890887     0.25200
C173        C  0.55325515  0.16420348  0.37529458    -0.41200
C174        C  0.53356189  0.13050065  0.36183431     0.32200
C175        C  0.43472560  0.16354484  0.37561483     0.00800
F176        F  0.47713762  0.22848182  0.40758078    -0.13500
F177        F  0.55108238  0.09662928  0.35088933    -0.14000
C178        C  0.41522034  0.13113304  0.39244043     0.15800
C179        C  0.37698561  0.13020950  0.39076932     0.25200
C180        C  0.35695549  0.16308969  0.37550566    -0.41100
C181        C  0.37669610  0.19623270  0.36038382     0.32100
C182        C  0.41493893  0.19575402  0.35880323     0.13800
F183        F  0.43311418  0.10027017  0.41106054    -0.13500
F184        F  0.35929448  0.22974442  0.34792818    -0.14000
F185        F  0.35989058  0.09650978  0.40322385    -0.16300
F186        F  0.43256251  0.22682890  0.34022703    -0.14800
F187        F  0.47766950  0.09900132  0.34360486    -0.14800
F188        F  0.55048817  0.23174129  0.39975918    -0.16300
C189        C  0.99448523  0.03161205  0.38084840     0.13800
C190        C  0.97494793  0.32963314  0.37595279     0.00800
C191        C  0.99421253  0.29419198  0.37058734     0.15700
C192        C  0.03251678  0.29399714  0.37031537     0.25200
C193        C  0.05228613  0.32938695  0.37506894    -0.41200
C194        C  0.03277516  0.03157354  0.38019684     0.32200
C195        C  0.93444905  0.32986301  0.37610586     0.00800
F196        F  0.97586185  0.25961389  0.36653962    -0.13500
F197        F  0.05070226  0.06647068  0.38342219    -0.14000
C198        C  0.91492115  0.98377668  0.33868838     0.15800
C199        C  0.87663602  0.98447054  0.33857370     0.25200
C200        C  0.85735583  0.33118283  0.37589701    -0.41100
C201        C  0.87684964  0.34377839  0.41340038     0.32100
C202        C  0.91514880  0.34315398  0.41349208     0.13800
F203        F  0.93298916  0.97116480  0.30205426    -0.13500
F204        F  0.85875668  0.35728288  0.44961845    -0.14000
F205        F  0.85831490  0.97144599  0.30232318    -0.16300
F206        F  0.93343964  0.35509221  0.45023405    -0.14800
F207        F  0.97639191  0.06630898  0.38530128    -0.14800
F208        F  0.05021723  0.25900662  0.36660891    -0.16300
C209        C  0.09302595  0.32923980  0.87497962     0.04300
C210        C  0.11258838  0.01765355  0.90666484    -0.11900
C211        C  0.15101623  0.01767514  0.90692129     0.01800
C212        C  0.17010672  0.99560931  0.87509906    -0.10400
C213        C  0.15096350  0.30701853  0.84320298     0.04300
C214        C  0.11251837  0.30731982  0.84334073    -0.09800
H215        H  0.09788272  0.03382819  0.93196169     0.09900
H216        H  0.19980826  0.99551180  0.87513870     0.07400
H217        H  0.09776553  0.29124219  0.81801249     0.07200
C218        C  0.81693294  0.33162344  0.87581157     0.04300
C219        C  0.79744692  0.30932219  0.90687859    -0.11900
C220        C  0.75902419  0.30941219  0.90698522     0.01800
C221        C  0.74007350  0.33164940  0.87522257    -0.10400
C222        C  0.75937752  0.02054660  0.84371315     0.04300
C223        C  0.79781991  0.02064933  0.84443547    -0.09800
H224        H  0.81229705  0.29211058  0.93117049     0.09900
H225        H  0.71038296  0.33161613  0.87499213     0.07400
H226        H  0.81295590  0.03774551  0.82027122     0.07200
O227        O  0.20800200  0.19515754  0.70487133    -0.70600
O228        O  0.15745997  0.25279945  0.79378895    -0.70900
O229        O  0.15776303  0.25289257  0.70554054    -0.70700
O230        O  0.20738513  0.19460978  0.79399374    -0.70700
O231        O  0.25144597  0.23765171  0.79382804    -0.70700
O232        O  0.20154900  0.29624444  0.70551450    -0.70700
O233        O  0.20152440  0.29579682  0.79481941    -0.70600
O234        O  0.25178343  0.23849918  0.70580434    -0.70800
V235        V  0.18355895  0.22464430  0.74956136     1.35200
V236        V  0.22564273  0.26628972  0.75000082     1.35200
C237        C  0.23863524  0.20699745  0.69039108     0.78600
C238        C  0.17087396  0.28421592  0.80933132     0.78700
C239        C  0.17107597  0.28447706  0.69055506     0.78500
C240        C  0.23800983  0.20600507  0.80865346     0.78500
C241        C  0.31595114  0.16280328  0.87529111     0.04300
C242        C  0.29613880  0.14319444  0.90861885    -0.11900
C243        C  0.25776483  0.14177772  0.90771114     0.01800
C244        C  0.23863360  0.16230525  0.87486790    -0.10400
C245        C  0.25780163  0.18307457  0.84222617     0.04300
C246        C  0.29619395  0.18213974  0.84173801    -0.09800
H247        H  0.31032077  0.12954798  0.93605878     0.09900
H248        H  0.20894618  0.16214151  0.87473461     0.07400
H249        H  0.31045235  0.19599178  0.81446907     0.07200
C250        C  0.59422015  0.16442590  0.87520713     0.04300
C251        C  0.61403320  0.14468945  0.84198224    -0.11900
C252        C  0.65245215  0.14393237  0.84246805     0.01800
C253        C  0.67150218  0.16475951  0.87516370    -0.10400
C254        C  0.65228504  0.18541242  0.90787914     0.04300
C255        C  0.61388265  0.18433645  0.90840143    -0.09800
H256        H  0.59975892  0.13042380  0.81500507     0.09900
H257        H  0.70120282  0.16488135  0.87515885     0.07400
H258        H  0.59951153  0.19845006  0.93541348     0.07200
O259        O  0.70256460  0.19759624  0.54521269    -0.70600
O260        O  0.75249318  0.25517534  0.95603961    -0.70900
O261        O  0.75258481  0.25563724  0.54418567    -0.70700
O262        O  0.70271987  0.19695746  0.95611880    -0.70700
O263        O  0.65859350  0.23991687  0.95642621    -0.70700
O264        O  0.70863191  0.29878512  0.54444784    -0.70700
O265        O  0.70839792  0.29814413  0.95519606    -0.70600
O266        O  0.65858787  0.24071561  0.54445327    -0.70800
V267        V  0.72667430  0.22711832  0.50039726     1.35200
V268        V  0.68447659  0.26863202  0.50013540     1.35200
C269        C  0.67190069  0.20923420  0.55973004     0.78600
C270        C  0.73902553  0.28656374  0.94060338     0.78700
C271        C  0.73926523  0.28726149  0.55913257     0.78500
C272        C  0.67205909  0.20832319  0.94151002     0.78500
C273        C  0.31679338  0.16294303  0.62439030     0.04300
C274        C  0.29728539  0.14069446  0.59311688    -0.11900
C275        C  0.25877959  0.14077461  0.59290023     0.01800
C276        C  0.23972473  0.16258092  0.62482853    -0.10400
C277        C  0.25881206  0.18456881  0.65655355     0.04300
C278        C  0.29731671  0.18502709  0.65587283    -0.09800
H279        H  0.31211398  0.12352984  0.56875757     0.09900
H280        H  0.21002254  0.16242511  0.62499504     0.07400
H281        H  0.31218084  0.20230159  0.68009046     0.07200
C282        C  0.59381352  0.16419121  0.62498386     0.04300
C283        C  0.61336297  0.18614322  0.59338790    -0.11900
C284        C  0.65184512  0.18653378  0.59337893     0.01800
C285        C  0.67100166  0.16491523  0.62531555    -0.10400
C286        C  0.65199237  0.14291633  0.65707587     0.04300
C287        C  0.61349865  0.14259025  0.65673639    -0.09800
H288        H  0.59864907  0.20214643  0.56798127     0.09900
H289        H  0.70070371  0.16517343  0.62541845     0.07400
H290        H  0.59886494  0.12627266  0.68198289     0.07200
O291        O  0.70927996  0.03100218  0.70568805    -0.70600
O292        O  0.65907582  0.08947525  0.79391947    -0.70900
O293        O  0.65905298  0.08877641  0.70593187    -0.70700
O294        O  0.70908442  0.03149985  0.79500517    -0.70700
O295        O  0.75308624  0.07457961  0.79417769    -0.70700
O296        O  0.70281696  0.13214721  0.70520054    -0.70700
O297        O  0.70306083  0.13260240  0.79430973    -0.70600
O298        O  0.75307355  0.07433890  0.70588176    -0.70800
V299        V  0.68506533  0.06094254  0.75013850     1.35200
V300        V  0.72711328  0.10263189  0.74988899     1.35200
C301        C  0.73977344  0.04276181  0.69078179     0.78600
C302        C  0.67240476  0.12111481  0.80887152     0.78700
C303        C  0.67219655  0.12035800  0.69070481     0.78500
C304        C  0.73963014  0.04320077  0.80969821     0.78500
O305        O  0.15743929  0.07188454  0.95629477    -0.70600
O306        O  0.20791484  0.12987017  0.54486985    -0.70900
O307        O  0.20727120  0.13012307  0.95579407    -0.70700
O308        O  0.15775788  0.07207636  0.54455109    -0.70700
O309        O  0.20153648  0.02872429  0.54463874    -0.70700
O310        O  0.25141595  0.08718328  0.95610449    -0.70700
O311        O  0.25171795  0.08655041  0.54409912    -0.70600
O312        O  0.20155629  0.02895323  0.95529608    -0.70800
V313        V  0.18349816  0.10019842  0.50036634     1.35200
V314        V  0.22562096  0.05860083  0.50002582     1.35200
C315        C  0.17090173  0.04048136  0.94077946     0.78600
C316        C  0.23856727  0.11812434  0.55933167     0.78700
C317        C  0.23794102  0.11877805  0.94120544     0.78500
C318        C  0.17108363  0.04054708  0.55964436     0.78500
C319        C  0.09325796  0.32960448  0.62550537     0.04300
C320        C  0.11265600  0.30692341  0.65638259    -0.11900
C321        C  0.15113076  0.30713027  0.65681392     0.01800
C322        C  0.17026447  0.99581786  0.62509707    -0.10400
C323        C  0.15115883  0.01805459  0.59357379     0.04300
C324        C  0.11269922  0.01870222  0.59442300    -0.09800
H325        H  0.09773934  0.29000544  0.68089036     0.09900
H326        H  0.19997054  0.99565279  0.62494903     0.07400
H327        H  0.09779700  0.03578416  0.57005442     0.07200
C328        C  0.81724885  0.33191256  0.62423150     0.04300
C329        C  0.79809462  0.02029763  0.65614821    -0.11900
C330        C  0.75962507  0.02020462  0.65677556     0.01800
C331        C  0.74036701  0.33183756  0.62482229    -0.10400
C332        C  0.75935198  0.31015656  0.59260993     0.04300
C333        C  0.79782205  0.31018437  0.59260747    -0.09800
H334        H  0.81321835  0.03690200  0.68074667     0.09900
H335        H  0.71068253  0.33176150  0.62507308     0.07400
H336        H  0.81273683  0.29345925  0.56790542     0.07200
C337        C  0.99503052  0.03248636  0.62788851     0.13800
C338        C  0.97538595  0.33034644  0.62489936     0.00800
C339        C  0.99465411  0.29460125  0.62238980     0.15700
C340        C  0.03298491  0.29433154  0.62277693     0.25200
C341        C  0.05267154  0.32982961  0.62560118    -0.41200
C342        C  0.03335699  0.03224356  0.62822524     0.32200
C343        C  0.93481296  0.33063612  0.62456937     0.00800
F344        F  0.97629678  0.26000556  0.61863051    -0.13500
F345        F  0.05163922  0.06687098  0.63216709    -0.14000
C346        C  0.91563887  0.01687459  0.59074024     0.15800
C347        C  0.87729789  0.01713232  0.59049551     0.25200
C348        C  0.85765486  0.33150641  0.62428120    -0.41100
C349        C  0.87673691  0.31203244  0.65812936     0.32100
C350        C  0.91505733  0.31143374  0.65818147     0.13800
F351        F  0.93409236  0.03528707  0.55767444    -0.13500
F352        F  0.85816649  0.29319860  0.69079434    -0.14000
F353        F  0.85928416  0.03630184  0.55764465    -0.16300
F354        F  0.93293051  0.29259454  0.69138298    -0.14800
F355        F  0.97702856  0.06731953  0.63137009    -0.14800
F356        F  0.05091340  0.25945846  0.61923556    -0.16300
C357        C  0.49508202  0.12815066  0.62995419     0.13800
C358        C  0.47545917  0.16332731  0.62433500     0.00800
C359        C  0.49471231  0.19876497  0.61896063     0.15700
C360        C  0.53306049  0.19913907  0.61957256     0.25200
C361        C  0.55296154  0.16386697  0.62480977    -0.41200
C362        C  0.53344615  0.12831121  0.62983448     0.32200
C363        C  0.43487545  0.16310138  0.62426275     0.00800
F364        F  0.47627524  0.23318984  0.61404455    -0.13500
F365        F  0.55144961  0.09349670  0.63345928    -0.14000
C366        C  0.41543774  0.15344642  0.66288357     0.15800
C367        C  0.37707601  0.15356335  0.66298973     0.25200
C368        C  0.35749013  0.16298573  0.62430138    -0.41100
C369        C  0.37704814  0.17242803  0.58556733     0.32100
C370        C  0.41542053  0.17268171  0.58564384     0.13800
F371        F  0.43368969  0.14436561  0.70065899    -0.13500
F372        F  0.35897961  0.18218676  0.54787653    -0.14000
F373        F  0.35903503  0.14372754  0.70069372    -0.16300
F374        F  0.43366518  0.18191111  0.54788569    -0.14800
F375        F  0.47700341  0.09348105  0.63468730    -0.16800
F376        F  0.55066859  0.23421326  0.61625727    -0.16300
C377        C  0.49530594  0.13085862  0.86040797     0.13800
C378        C  0.47552041  0.16374759  0.87556110     0.00800
C379        C  0.49503120  0.19685400  0.89061103     0.15700
C380        C  0.53327326  0.19766804  0.88890846     0.25200
C381        C  0.55325518  0.16420373  0.87529388    -0.41200
C382        C  0.53356205  0.13050063  0.86183392     0.32200
C383        C  0.43472562  0.16354464  0.87561483     0.00800
F384        F  0.47713753  0.22848180  0.90758070    -0.13500
F385        F  0.55108262  0.09662941  0.85088889    -0.14000
C386        C  0.41522039  0.13113288  0.89244048     0.15800
C387        C  0.37698573  0.13020938  0.89076940     0.25200
C388        C  0.35695556  0.16308937  0.87550587    -0.41100
C389        C  0.37669631  0.19623269  0.86038394     0.32100
C390        C  0.41493894  0.19575368  0.85880330     0.13800
F391        F  0.43311438  0.10027019  0.91106045    -0.13500
F392        F  0.35929502  0.22974465  0.84792867    -0.14000
F393        F  0.35989065  0.09650946  0.90322388    -0.16300
F394        F  0.43256238  0.22682850  0.84022720    -0.14800
F395        F  0.47766971  0.09900132  0.84360473    -0.14800
F396        F  0.55048797  0.23174159  0.89975877    -0.16300
C397        C  0.99448518  0.03161217  0.88084832     0.13800
C398        C  0.97494786  0.32963318  0.87595265     0.00800
C399        C  0.99421258  0.29419216  0.87058720     0.15700
C400        C  0.03251666  0.29399709  0.87031516     0.25200
C401        C  0.05228613  0.32938728  0.87506872    -0.41200
C402        C  0.03277502  0.03157363  0.88019681     0.32200
C403        C  0.93444922  0.32986303  0.87610575     0.00800
F404        F  0.97586200  0.25961399  0.86653963    -0.13500
F405        F  0.05070229  0.06647080  0.88342213    -0.14000
C406        C  0.91492118  0.98377656  0.83868820     0.15800
C407        C  0.87663608  0.98447043  0.83857359     0.25200
C408        C  0.85735603  0.33118322  0.87589661    -0.41100
C409        C  0.87685005  0.34377842  0.91340021     0.32100
C410        C  0.91514890  0.34315387  0.91349182     0.13800
F411        F  0.93298929  0.97116476  0.80205424    -0.13500
F412        F  0.85875694  0.35728281  0.94961817    -0.14000
F413        F  0.85831499  0.97144589  0.80232315    -0.16300
F414        F  0.93343943  0.35509220  0.95023399    -0.14800
F415        F  0.97639183  0.06630907  0.88530124    -0.14800
F416        F  0.05021694  0.25900671  0.86660869    -0.16300
C417        C  0.09302682  0.66257318  0.37497985     0.04300
C418        C  0.11258708  0.35098698  0.40666553    -0.11900
C419        C  0.15101514  0.35100962  0.40692311     0.01800
C420        C  0.17010644  0.32894303  0.37509978    -0.10400
C421        C  0.15096446  0.64035249  0.34320362     0.04300
C422        C  0.11251791  0.64065380  0.34334190    -0.09800
H423        H  0.09787918  0.36716373  0.43196655     0.09900
H424        H  0.19980754  0.32884677  0.37514216     0.07400
H425        H  0.09776894  0.62457878  0.31801831     0.07200
C426        C  0.81693133  0.66495648  0.37581171     0.04300
C427        C  0.79744623  0.64265589  0.40687797    -0.11900
C428        C  0.75902061  0.64274623  0.40698404     0.01800
C429        C  0.74007252  0.66498327  0.37522191    -0.10400
C430        C  0.75937553  0.35387866  0.34371496     0.04300
C431        C  0.79781863  0.35398182  0.34443676    -0.09800
H432        H  0.81229093  0.62544582  0.43116755     0.09900
H433        H  0.71037115  0.66495035  0.37499097     0.07400
H434        H  0.81294885  0.37107308  0.32028086     0.07200
O435        O  0.20800159  0.52849079  0.20487136    -0.70600
O436        O  0.15746000  0.58613303  0.29378898    -0.70900
O437        O  0.15776293  0.58622552  0.20554059    -0.70700
O438        O  0.20738513  0.52794317  0.29399369    -0.70700
O439        O  0.25144596  0.57098515  0.29382800    -0.70700
O440        O  0.20154881  0.62957757  0.20551459    -0.70700
O441        O  0.20152445  0.62913037  0.29481946    -0.70600
O442        O  0.25178312  0.57183236  0.20580432    -0.70800
V443        V  0.18355885  0.55797755  0.24956146     1.35200
V444        V  0.22564259  0.59962306  0.25000079     1.35200
C445        C  0.23863459  0.54033044  0.19039054     0.78600
C446        C  0.17087363  0.61754909  0.30933125     0.78700
C447        C  0.17107539  0.61780985  0.19055520     0.78500
C448        C  0.23800996  0.53933860  0.30865332     0.78500
C449        C  0.31595104  0.49613643  0.37529124     0.04300
C450        C  0.29613819  0.47652783  0.40861840    -0.11900
C451        C  0.25776447  0.47511103  0.40771093     0.01800
C452        C  0.23863320  0.49563904  0.37486706    -0.10400
C453        C  0.25780160  0.51640806  0.34222598     0.04300
C454        C  0.29619382  0.51547337  0.34173768    -0.09800
H455        H  0.31032090  0.46288008  0.43606046     0.09900
H456        H  0.20894587  0.49547497  0.37473352     0.07400
H457        H  0.31045241  0.52932522  0.31446937     0.07200
C458        C  0.59421980  0.49776013  0.37520883     0.04300
C459        C  0.61403250  0.47802313  0.34198233    -0.11900
C460        C  0.65245143  0.47726630  0.34246844     0.01800
C461        C  0.67150206  0.49809265  0.37516322    -0.10400
C462        C  0.65228502  0.51874650  0.40787964     0.04300
C463        C  0.61388308  0.51767009  0.40840177    -0.09800
H464        H  0.59975744  0.46375993  0.31500746     0.09900
H465        H  0.70120239  0.49821515  0.37516014     0.07400
H466        H  0.59951092  0.53178619  0.43541851     0.07200
O467        O  0.70256442  0.53092960  0.04521276    -0.70600
O468        O  0.75249271  0.58850899  0.45603947    -0.70900
O469        O  0.75258459  0.58897074  0.04418591    -0.70700
O470        O  0.70271994  0.53029092  0.45611915    -0.70700
O471        O  0.65859365  0.57325045  0.45642623    -0.70700
O472        O  0.70863168  0.63211857  0.04444783    -0.70700
O473        O  0.70839729  0.63147765  0.45519641    -0.70600
O474        O  0.65858779  0.57404910  0.04445315    -0.70800
V475        V  0.72667430  0.56045181  0.00039760     1.35200
V476        V  0.68447646  0.60196531  0.00013528     1.35200
C477        C  0.67190014  0.54256783  0.05972981     0.78600
C478        C  0.73902642  0.61989593  0.44060299     0.78700
C479        C  0.73926485  0.62059481  0.05913232     0.78500
C480        C  0.67205948  0.54165648  0.44150979     0.78500
C481        C  0.31679390  0.49627716  0.12439135     0.04300
C482        C  0.29728580  0.47402762  0.09311678    -0.11900
C483        C  0.25878071  0.47410765  0.09289966     0.01800
C484        C  0.23972484  0.49591367  0.12482771    -0.10400
C485        C  0.25881197  0.51790237  0.15655388     0.04300
C486        C  0.29731583  0.51836088  0.15587405    -0.09800
H487        H  0.31211717  0.45686096  0.06875536     0.09900
H488        H  0.21002244  0.49575755  0.12499377     0.07400
H489        H  0.31218190  0.53563903  0.18009780     0.07200
C490        C  0.59381326  0.49752474  0.12498348     0.04300
C491        C  0.61336233  0.51947671  0.09338754    -0.11900
C492        C  0.65184486  0.51986724  0.09337855     0.01800
C493        C  0.67100095  0.49824888  0.12531510    -0.10400
C494        C  0.65199247  0.47624984  0.15707531     0.04300
C495        C  0.61349799  0.47592379  0.15673612    -0.09800
H496        H  0.59864920  0.53547959  0.06798143     0.09900
H497        H  0.70070461  0.49850770  0.12541746     0.07400
H498        H  0.59886509  0.45960712  0.18198200     0.07200
O499        O  0.70927970  0.36433519  0.20568790    -0.70600
O500        O  0.65907558  0.42280869  0.29391964    -0.70900
O501        O  0.65905278  0.42210971  0.20593170    -0.70700
O502        O  0.70908406  0.36483293  0.29500516    -0.70700
O503        O  0.75308607  0.40791250  0.29417801    -0.70700
O504        O  0.70281688  0.46548035  0.20520049    -0.70700
O505        O  0.70306050  0.46593584  0.29430999    -0.70600
O506        O  0.75307341  0.40767167  0.20588150    -0.70800
V507        V  0.68506510  0.39427571  0.25013864     1.35200
V508        V  0.72711314  0.43596489  0.24988902     1.35200
C509        C  0.73977368  0.37609516  0.19078129     0.78600
C510        C  0.67240423  0.45444819  0.30887123     0.78700
C511        C  0.67219538  0.45369035  0.19070456     0.78500
C512        C  0.73963027  0.37653441  0.30969843     0.78500
O513        O  0.15743888  0.40521824  0.45629529    -0.70600
O514        O  0.20791520  0.46320353  0.04486985    -0.70900
O515        O  0.20727093  0.46345642  0.45579407    -0.70700
O516        O  0.15775807  0.40540962  0.04455134    -0.70700
O517        O  0.20153672  0.36205763  0.04463872    -0.70700
O518        O  0.25141582  0.42051674  0.45610431    -0.70700
O519        O  0.25171802  0.41988343  0.04409894    -0.70600
O520        O  0.20155593  0.36228697  0.45529617    -0.70800
V521        V  0.18349832  0.43353191  0.00036637     1.35200
V522        V  0.22562094  0.39193413  0.00002569     1.35200
C523        C  0.17090136  0.37381487  0.44078017     0.78600
C524        C  0.23856737  0.45145805  0.05933159     0.78700
C525        C  0.23794032  0.45211192  0.44120491     0.78500
C526        C  0.17108379  0.37388082  0.05964453     0.78500
C527        C  0.09325823  0.66293573  0.12550804     0.04300
C528        C  0.11265461  0.64025617  0.15638310    -0.11900
C529        C  0.15113055  0.64046249  0.15681540     0.01800
C530        C  0.17026475  0.32915107  0.12509728    -0.10400
C531        C  0.15115985  0.35138744  0.09357475     0.04300
C532        C  0.11270007  0.35203550  0.09442338    -0.09800
H533        H  0.09773738  0.62333526  0.18089306     0.09900
H534        H  0.19997041  0.32898533  0.12495002     0.07400
H535        H  0.09780045  0.36911551  0.07005789     0.07200
C536        C  0.81724835  0.66524617  0.12423239     0.04300
C537        C  0.79809376  0.35362974  0.15614636    -0.11900
C538        C  0.75962298  0.35353644  0.15677304     0.01800
C539        C  0.74036659  0.66517056  0.12482192    -0.10400
C540        C  0.75935139  0.64349030  0.09261056     0.04300
C541        C  0.79782166  0.64351783  0.09260791    -0.09800
H542        H  0.81321551  0.37023049  0.18074091     0.09900
H543        H  0.71068276  0.66509507  0.12507326     0.07400
H544        H  0.81273419  0.62679609  0.06790992     0.07200
C545        C  0.99503036  0.36582009  0.12788826     0.13800
C546        C  0.97538598  0.66367961  0.12489935     0.00800
C547        C  0.99465442  0.62793466  0.12238969     0.15700
C548        C  0.03298505  0.62766408  0.12277671     0.25200
C549        C  0.05267142  0.66316310  0.12560130    -0.41200
C550        C  0.03335696  0.36557685  0.12822480     0.32200
C551        C  0.93481320  0.66396946  0.12456944     0.00800
F552        F  0.97629687  0.59333910  0.11863035    -0.13500
F553        F  0.05163938  0.40020408  0.13216664    -0.14000
C554        C  0.91563894  0.35020790  0.09074008     0.15800
C555        C  0.87729788  0.35046544  0.09049510     0.25200
C556        C  0.85765475  0.66483968  0.12428142    -0.41100
C557        C  0.87673697  0.64536566  0.15812952     0.32100
C558        C  0.91505718  0.64476690  0.15818168     0.13800
F559        F  0.93409242  0.36862020  0.05767405    -0.13500
F560        F  0.85816643  0.62653180  0.19079461    -0.14000
F561        F  0.85928427  0.36963473  0.05764433    -0.16300
F562        F  0.93293045  0.62592771  0.19138315    -0.14800
F563        F  0.97702854  0.40065337  0.13136968    -0.14800
F564        F  0.05091349  0.59279113  0.11923525    -0.16300
C565        C  0.49508204  0.46148375  0.12995423     0.13800
C566        C  0.47545904  0.49666055  0.12433497     0.00800
C567        C  0.49471244  0.53209816  0.11896052     0.15700
C568        C  0.53306031  0.53247252  0.11957251     0.25200
C569        C  0.55296142  0.49720029  0.12480966    -0.41200
C570        C  0.53344590  0.46164457  0.12983443     0.32200
C571        C  0.43487558  0.49643455  0.12426277     0.00800
F572        F  0.47627533  0.56652313  0.11404432    -0.13500
F573        F  0.55144948  0.42683000  0.13345934    -0.14000
C574        C  0.41543783  0.48677964  0.16288367     0.15800
C575        C  0.37707615  0.48689675  0.16298985     0.25200
C576        C  0.35748988  0.49631974  0.12430187    -0.41100
C577        C  0.37704817  0.50576126  0.08556764     0.32100
C578        C  0.41542052  0.50601476  0.08564399     0.13800
F579        F  0.43368967  0.47769893  0.20065912    -0.13500
F580        F  0.35897964  0.51551992  0.04787688    -0.14000
F581        F  0.35903515  0.47706094  0.20069362    -0.16300
F582        F  0.43366505  0.51524415  0.04788572    -0.14800
F583        F  0.47700332  0.42681410  0.13468739    -0.16800
F584        F  0.55066845  0.56754679  0.11625722    -0.16300
C585        C  0.49530585  0.46419201  0.36040802     0.13800
C586        C  0.47552029  0.49708102  0.37556113     0.00800
C587        C  0.49503116  0.53018742  0.39061103     0.15700
C588        C  0.53327321  0.53100161  0.38890883     0.25200
C589        C  0.55325514  0.49753671  0.37529462    -0.41200
C590        C  0.53356182  0.46383415  0.36183440     0.32200
C591        C  0.43472561  0.49687795  0.37561491     0.00800
F592        F  0.47713748  0.56181520  0.40758076    -0.13500
F593        F  0.55108218  0.42996255  0.35088944    -0.14000
C594        C  0.41522025  0.46446618  0.39244049     0.15800
C595        C  0.37698562  0.46354259  0.39076945     0.25200
C596        C  0.35695532  0.49642282  0.37550585    -0.41100
C597        C  0.37669635  0.52956594  0.36038412     0.32100
C598        C  0.41493885  0.52908703  0.35880344     0.13800
F599        F  0.43311434  0.43360353  0.41106055    -0.13500
F600        F  0.35929516  0.56307799  0.34792865    -0.14000
F601        F  0.35989042  0.42984276  0.40322397    -0.16300
F602        F  0.43256229  0.56016185  0.34022721    -0.14800
F603        F  0.47766965  0.43233463  0.34360485    -0.14800
F604        F  0.55048821  0.56507486  0.39975889    -0.16300
C605        C  0.99448512  0.36494532  0.38084832     0.13800
C606        C  0.97494791  0.66296642  0.37595274     0.00800
C607        C  0.99421260  0.62752541  0.37058734     0.15700
C608        C  0.03251689  0.62733022  0.37031517     0.25200
C609        C  0.05228566  0.66272079  0.37506895    -0.41200
C610        C  0.03277502  0.36490712  0.38019673     0.32200
C611        C  0.93444920  0.66319624  0.37610584     0.00800
F612        F  0.97586190  0.59294720  0.36653966    -0.13500
F613        F  0.05070211  0.39980410  0.38342213    -0.14000
C614        C  0.91492099  0.31711014  0.33868847     0.15800
C615        C  0.87663578  0.31780404  0.33857381     0.25200
C616        C  0.85735586  0.66451575  0.37589721    -0.41100
C617        C  0.87684989  0.67711132  0.41340024     0.32100
C618        C  0.91514880  0.67648704  0.41349210     0.13800
F619        F  0.93298911  0.30449841  0.30205432    -0.13500
F620        F  0.85875682  0.69061584  0.44961825    -0.14000
F621        F  0.85831499  0.30477938  0.30232316    -0.16300
F622        F  0.93343943  0.68842533  0.45023421    -0.14800
F623        F  0.97639196  0.39964234  0.38530132    -0.14800
F624        F  0.05021728  0.59233996  0.36660877    -0.16300
C625        C  0.09302692  0.66257333  0.87497975     0.04300
C626        C  0.11258815  0.35098689  0.90666519    -0.11900
C627        C  0.15101414  0.35100898  0.90692211     0.01800
C628        C  0.17010599  0.32894284  0.87509956    -0.10400
C629        C  0.15096459  0.64035250  0.84320363     0.04300
C630        C  0.11251882  0.64065349  0.84334142    -0.09800
H631        H  0.09788125  0.36716106  0.93196178     0.09900
H632        H  0.19979761  0.32884577  0.87514041     0.07400
H633        H  0.09776876  0.62457866  0.81801800     0.07200
C634        C  0.81693150  0.66495720  0.87581097     0.04300
C635        C  0.79744616  0.64265624  0.90687754    -0.11900
C636        C  0.75902127  0.64274615  0.90698398     0.01800
C637        C  0.74007213  0.66498299  0.87522203    -0.10400
C638        C  0.75937888  0.35387951  0.84371412     0.04300
C639        C  0.79781863  0.35398263  0.84443581    -0.09800
H640        H  0.81229268  0.62544592  0.93116745     0.09900
H641        H  0.71037274  0.66494961  0.87499120     0.07400
H642        H  0.81295490  0.37107743  0.82027454     0.07200
O643        O  0.20800168  0.52849076  0.70487148    -0.70600
O644        O  0.15746001  0.58613319  0.79378900    -0.70900
O645        O  0.15776275  0.58622547  0.70554040    -0.70700
O646        O  0.20738528  0.52794317  0.79399386    -0.70700
O647        O  0.25144611  0.57098509  0.79382804    -0.70700
O648        O  0.20154858  0.62957756  0.70551422    -0.70700
O649        O  0.20152462  0.62913032  0.79481928    -0.70600
O650        O  0.25178323  0.57183233  0.70580416    -0.70800
V651        V  0.18355890  0.55797752  0.74956148     1.35200
V652        V  0.22564259  0.59962305  0.75000048     1.35200
C653        C  0.23863481  0.54033060  0.69039066     0.78600
C654        C  0.17087406  0.61754907  0.80933105     0.78700
C655        C  0.17107495  0.61780960  0.69055502     0.78500
C656        C  0.23801045  0.53933877  0.80865359     0.78500
C657        C  0.31595128  0.49613647  0.87529135     0.04300
C658        C  0.29613921  0.47652752  0.90861892    -0.11900
C659        C  0.25776471  0.47511089  0.90771129     0.01800
C660        C  0.23863400  0.49563841  0.87486804    -0.10400
C661        C  0.25780154  0.51640781  0.84222650     0.04300
C662        C  0.29619433  0.51547300  0.84173826    -0.09800
H663        H  0.31032057  0.46288056  0.93605854     0.09900
H664        H  0.20894486  0.49547420  0.87473483     0.07400
H665        H  0.31045222  0.52932485  0.81446962     0.07200
C666        C  0.59422216  0.49775938  0.87520761     0.04300
C667        C  0.61403321  0.47802297  0.84198287    -0.11900
C668        C  0.65245495  0.47726606  0.84246850     0.01800
C669        C  0.67150379  0.49809260  0.87516325    -0.10400
C670        C  0.65228869  0.51874552  0.90787819     0.04300
C671        C  0.61388352  0.51766965  0.90840062    -0.09800
H672        H  0.59976323  0.46375996  0.81500949     0.09900
H673        H  0.70121438  0.49821460  0.87515853     0.07400
H674        H  0.59951732  0.53178258  0.93541071     0.07200
O675        O  0.70256433  0.53092978  0.54521279    -0.70600
O676        O  0.75249295  0.58850893  0.95603964    -0.70900
O677        O  0.75258467  0.58897063  0.54418576    -0.70700
O678        O  0.70272070  0.53029064  0.95611932    -0.70700
O679        O  0.65859414  0.57324983  0.95642615    -0.70700
O680        O  0.70863171  0.63211847  0.54444764    -0.70700
O681        O  0.70839747  0.63147742  0.95519635    -0.70600
O682        O  0.65858770  0.57404927  0.54445296    -0.70800
V683        V  0.72667424  0.56045176  0.50039741     1.35200
V684        V  0.68447652  0.60196546  0.50013515     1.35200
C685        C  0.67190028  0.54256771  0.55972974     0.78600
C686        C  0.73902602  0.61989613  0.94060322     0.78700
C687        C  0.73926446  0.62059503  0.55913244     0.78500
C688        C  0.67205897  0.54165745  0.94150983     0.78500
C689        C  0.31679326  0.49627598  0.62438993     0.04300
C690        C  0.29728501  0.47402743  0.59311639    -0.11900
C691        C  0.25877993  0.47410740  0.59289933     0.01800
C692        C  0.23972414  0.49591402  0.62482825    -0.10400
C693        C  0.25881141  0.51790186  0.65655312     0.04300
C694        C  0.29731539  0.51836033  0.65587320    -0.09800
H695        H  0.31211580  0.45685997  0.56875341     0.09900
H696        H  0.21002232  0.49575747  0.62499422     0.07400
H697        H  0.31217933  0.53563552  0.68009201     0.07200
C698        C  0.59381354  0.49752533  0.62498255     0.04300
C699        C  0.61336178  0.51947645  0.59338744    -0.11900
C700        C  0.65184436  0.51986781  0.59337760     0.01800
C701        C  0.67100129  0.49824865  0.62531528    -0.10400
C702        C  0.65199320  0.47625045  0.65707442     0.04300
C703        C  0.61349922  0.47592358  0.65673601    -0.09800
H704        H  0.59864642  0.53548153  0.56797775     0.09900
H705        H  0.70070397  0.49850816  0.62541675     0.07400
H706        H  0.59886868  0.45960919  0.68197791     0.07200
O707        O  0.70928008  0.36433535  0.70568793    -0.70600
O708        O  0.65907629  0.42280880  0.79391943    -0.70900
O709        O  0.65905318  0.42210997  0.70593174    -0.70700
O710        O  0.70908460  0.36483325  0.79500531    -0.70700
O711        O  0.75308655  0.40791287  0.79417797    -0.70700
O712        O  0.70281721  0.46548068  0.70520046    -0.70700
O713        O  0.70306130  0.46593599  0.79430960    -0.70600
O714        O  0.75307361  0.40767207  0.70588158    -0.70800
V715        V  0.68506549  0.39427592  0.75013861     1.35200
V716        V  0.72711352  0.43596514  0.74988892     1.35200
C717        C  0.73977362  0.37609483  0.69078145     0.78600
C718        C  0.67240459  0.45444786  0.80887132     0.78700
C719        C  0.67219629  0.45369080  0.69070462     0.78500
C720        C  0.73962964  0.37653373  0.80969854     0.78500
O721        O  0.15743893  0.40521812  0.95629496    -0.70600
O722        O  0.20791483  0.46320356  0.54486982    -0.70900
O723        O  0.20727119  0.46345632  0.95579406    -0.70700
O724        O  0.15775783  0.40540958  0.54455137    -0.70700
O725        O  0.20153651  0.36205761  0.54463874    -0.70700
O726        O  0.25141606  0.42051656  0.95610447    -0.70700
O727        O  0.25171774  0.41988356  0.54409890    -0.70600
O728        O  0.20155589  0.36228678  0.95529589    -0.70800
V729        V  0.18349797  0.43353201  0.50036651     1.35200
V730        V  0.22562072  0.39193439  0.50002572     1.35200
C731        C  0.17090220  0.37381435  0.94077995     0.78600
C732        C  0.23856633  0.45145830  0.55933153     0.78700
C733        C  0.23794176  0.45211103  0.94120527     0.78500
C734        C  0.17108396  0.37388021  0.55964462     0.78500
C735        C  0.09325780  0.66293687  0.62550650     0.04300
C736        C  0.11265459  0.64025663  0.65638249    -0.11900
C737        C  0.15112933  0.64046303  0.65681449     0.01800
C738        C  0.17026505  0.32915098  0.62509746    -0.10400
C739        C  0.15115884  0.35138773  0.59357432     0.04300
C740        C  0.11269980  0.35203536  0.59442348    -0.09800
H741        H  0.09773917  0.62333858  0.68088819     0.09900
H742        H  0.19996884  0.32898552  0.62495019     0.07400
H743        H  0.09779652  0.36911764  0.57005480     0.07200
C744        C  0.81724752  0.66524590  0.62423171     0.04300
C745        C  0.79809459  0.35363052  0.65614757    -0.11900
C746        C  0.75962577  0.35353737  0.65677452     0.01800
C747        C  0.74036561  0.66517072  0.62482221    -0.10400
C748        C  0.75935095  0.64348988  0.59261020     0.04300
C749        C  0.79782120  0.64351815  0.59260824    -0.09800
H750        H  0.81321982  0.37023391  0.68074675     0.09900
H751        H  0.71068258  0.66509465  0.62507246     0.07400
H752        H  0.81273427  0.62679543  0.56790789     0.07200
C753        C  0.99503035  0.36581998  0.62788835     0.13800
C754        C  0.97538613  0.66367964  0.62489942     0.00800
C755        C  0.99465418  0.62793470  0.62238984     0.15700
C756        C  0.03298508  0.62766439  0.62277685     0.25200
C757        C  0.05267090  0.66316326  0.62560091    -0.41200
C758        C  0.03335697  0.36557708  0.62822507     0.32200
C759        C  0.93481288  0.66396949  0.62456925     0.00800
F760        F  0.97629680  0.59333911  0.61863059    -0.13500
F761        F  0.05163933  0.40020434  0.63216682    -0.14000
C762        C  0.91563903  0.35020789  0.59074000     0.15800
C763        C  0.87729809  0.35046544  0.59049531     0.25200
C764        C  0.85765462  0.66483989  0.62428154    -0.41100
C765        C  0.87673671  0.64536589  0.65812916     0.32100
C766        C  0.91505726  0.64476696  0.65818154     0.13800
F767        F  0.93409228  0.36862018  0.55767407    -0.13500
F768        F  0.85816654  0.62653189  0.69079440    -0.14000
F769        F  0.85928429  0.36963477  0.55764453    -0.16300
F770        F  0.93293041  0.62592782  0.69138292    -0.14800
F771        F  0.97702839  0.40065325  0.63136977    -0.14800
F772        F  0.05091334  0.59279131  0.61923550    -0.16300
C773        C  0.49508205  0.46148379  0.62995418     0.13800
C774        C  0.47545914  0.49666056  0.62433498     0.00800
C775        C  0.49471230  0.53209827  0.61896061     0.15700
C776        C  0.53306048  0.53247274  0.61957262     0.25200
C777        C  0.55296140  0.49719986  0.62481018    -0.41200
C778        C  0.53344611  0.46164475  0.62983448     0.32200
C779        C  0.43487560  0.49643460  0.62426269     0.00800
F780        F  0.47627513  0.56652317  0.61404442    -0.13500
F781        F  0.55144974  0.42683012  0.63345935    -0.14000
C782        C  0.41543767  0.48677968  0.66288354     0.15800
C783        C  0.37707608  0.48689671  0.66298960     0.25200
C784        C  0.35748967  0.49631919  0.62430178    -0.41100
C785        C  0.37704820  0.50576126  0.58556737     0.32100
C786        C  0.41542048  0.50601489  0.58564394     0.13800
F787        F  0.43368960  0.47769895  0.70065898    -0.13500
F788        F  0.35897982  0.51551990  0.54787664    -0.14000
F789        F  0.35903521  0.47706093  0.70069377    -0.16300
F790        F  0.43366507  0.51524416  0.54788555    -0.14800
F791        F  0.47700343  0.42681410  0.63468728    -0.16800
F792        F  0.55066853  0.56754681  0.61625727    -0.16300
C793        C  0.49530605  0.46419192  0.86040793     0.13800
C794        C  0.47552036  0.49708091  0.87556106     0.00800
C795        C  0.49503141  0.53018719  0.89061098     0.15700
C796        C  0.53327350  0.53100120  0.88890875     0.25200
C797        C  0.55325553  0.49753679  0.87529428    -0.41200
C798        C  0.53356222  0.46383401  0.86183403     0.32200
C799        C  0.43472584  0.49687806  0.87561482     0.00800
F800        F  0.47713758  0.56181508  0.90758061    -0.13500
F801        F  0.55108263  0.42996267  0.85088888    -0.14000
C802        C  0.41522033  0.46446622  0.89244055     0.15800
C803        C  0.37698593  0.46354279  0.89076949     0.25200
C804        C  0.35695565  0.49642272  0.87550595    -0.41100
C805        C  0.37669652  0.52956609  0.86038391     0.32100
C806        C  0.41493899  0.52908720  0.85880318     0.13800
F807        F  0.43311420  0.43360331  0.91106055    -0.13500
F808        F  0.35929496  0.56307795  0.84792869    -0.14000
F809        F  0.35989073  0.42984287  0.90322398    -0.16300
F810        F  0.43256257  0.56016214  0.84022690    -0.14800
F811        F  0.47766947  0.43233466  0.84360469    -0.14800
F812        F  0.55048811  0.56507461  0.89975917    -0.16300
C813        C  0.99448516  0.36494533  0.88084842     0.13800
C814        C  0.97494788  0.66296648  0.87595269     0.00800
C815        C  0.99421284  0.62752559  0.87058739     0.15700
C816        C  0.03251680  0.62733040  0.87031525     0.25200
C817        C  0.05228621  0.66272071  0.87506877    -0.41200
C818        C  0.03277493  0.36490689  0.88019678     0.32200
C819        C  0.93444934  0.66319625  0.87610583     0.00800
F820        F  0.97586224  0.59294723  0.86653986    -0.13500
F821        F  0.05070200  0.39980403  0.88342214    -0.14000
C822        C  0.91492114  0.31711000  0.83868814     0.15800
C823        C  0.87663612  0.31780402  0.83857366     0.25200
C824        C  0.85735576  0.66451639  0.87589661    -0.41100
C825        C  0.87684997  0.67711143  0.91340017     0.32100
C826        C  0.91514882  0.67648690  0.91349182     0.13800
F827        F  0.93298911  0.30449833  0.80205409    -0.13500
F828        F  0.85875704  0.69061589  0.94961821    -0.14000
F829        F  0.85831482  0.30477938  0.80232329    -0.16300
F830        F  0.93343955  0.68842523  0.95023402    -0.14800
F831        F  0.97639192  0.39964229  0.88530144    -0.14800
F832        F  0.05021702  0.59233997  0.86660872    -0.16300
C833        C  0.09302711  0.99590663  0.37497983     0.04300
C834        C  0.11258752  0.68432035  0.40666496    -0.11900
C835        C  0.15101506  0.68434209  0.40692187     0.01800
C836        C  0.17010567  0.66227665  0.37510015    -0.10400
C837        C  0.15096489  0.97368582  0.34320379     0.04300
C838        C  0.11251887  0.97398669  0.34334145    -0.09800
H839        H  0.09788528  0.70049099  0.43195510     0.09900
H840        H  0.19979907  0.66217954  0.37514113     0.07400
H841        H  0.09776954  0.95791199  0.31801842     0.07200
C842        C  0.81693239  0.99828905  0.37581271     0.04300
C843        C  0.79744713  0.97598874  0.40687853    -0.11900
C844        C  0.75902375  0.97607842  0.40698575     0.01800
C845        C  0.74007345  0.99831612  0.37522262    -0.10400
C846        C  0.75937678  0.68721264  0.34371407     0.04300
C847        C  0.79781966  0.68731549  0.34443625    -0.09800
H848        H  0.81229635  0.95877647  0.43117111     0.09900
H849        H  0.71038249  0.99828206  0.37499348     0.07400
H850        H  0.81295298  0.70440852  0.32027747     0.07200
O851        O  0.20800159  0.86182426  0.20487147    -0.70600
O852        O  0.15746011  0.91946653  0.29378908    -0.70900
O853        O  0.15776268  0.91955910  0.20554038    -0.70700
O854        O  0.20738529  0.86127665  0.29399370    -0.70700
O855        O  0.25144614  0.90431860  0.29382792    -0.70700
O856        O  0.20154856  0.96291110  0.20551418    -0.70700
O857        O  0.20152470  0.96246370  0.29481938    -0.70600
O858        O  0.25178316  0.90516577  0.20580430    -0.70800
V859        V  0.18355887  0.89131104  0.24956146     1.35200
V860        V  0.22564259  0.93295655  0.25000056     1.35200
C861        C  0.23863437  0.87366364  0.19039063     0.78600
C862        C  0.17087407  0.95088230  0.30933119     0.78700
C863        C  0.17107536  0.95114354  0.19055493     0.78500
C864        C  0.23801054  0.87267224  0.30865331     0.78500
C865        C  0.31595118  0.82946981  0.37529115     0.04300
C866        C  0.29613850  0.80986129  0.40861843    -0.11900
C867        C  0.25776459  0.80844444  0.40771078     0.01800
C868        C  0.23863354  0.82897249  0.37486704    -0.10400
C869        C  0.25780179  0.84974148  0.34222593     0.04300
C870        C  0.29619424  0.84880662  0.34173765    -0.09800
H871        H  0.31032099  0.79621420  0.43606019     0.09900
H872        H  0.20894580  0.82880881  0.37473343     0.07400
H873        H  0.31045266  0.86265833  0.31446949     0.07200
C874        C  0.59421961  0.83109357  0.37520886     0.04300
C875        C  0.61403345  0.81135606  0.34198205    -0.11900
C876        C  0.65245190  0.81059994  0.34246900     0.01800
C877        C  0.67150194  0.83142629  0.37516374    -0.10400
C878        C  0.65228398  0.85208021  0.40788073     0.04300
C879        C  0.61388223  0.85100328  0.40840202    -0.09800
H880        H  0.59975917  0.79709193  0.31500761     0.09900
H881        H  0.70120229  0.83154944  0.37516158     0.07400
H882        H  0.59950760  0.86512090  0.43542179     0.07200
O883        O  0.70256438  0.86426321  0.04521250    -0.70600
O884        O  0.75249324  0.92184179  0.45603985    -0.70900
O885        O  0.75258467  0.92230386  0.04418582    -0.70700
O886        O  0.70271963  0.86362437  0.45611913    -0.70700
O887        O  0.65859347  0.90658405  0.45642647    -0.70700
O888        O  0.70863177  0.96545176  0.04444767    -0.70700
O889        O  0.70839801  0.96481058  0.45519633    -0.70600
O890        O  0.65858774  0.90738280  0.04445282    -0.70800
V891        V  0.72667427  0.89378498  0.00039736     1.35200
V892        V  0.68447659  0.93529870  0.00013512     1.35200
C893        C  0.67190019  0.87590149  0.05972931     0.78600
C894        C  0.73902590  0.95322965  0.44060381     0.78700
C895        C  0.73926519  0.95392770  0.05913215     0.78500
C896        C  0.67205932  0.87498957  0.44151009     0.78500
C897        C  0.31679379  0.82961037  0.12439128     0.04300
C898        C  0.29728528  0.80736067  0.09311650    -0.11900
C899        C  0.25878046  0.80744104  0.09289977     0.01800
C900        C  0.23972451  0.82924701  0.12482768    -0.10400
C901        C  0.25881203  0.85123586  0.15655398     0.04300
C902        C  0.29731565  0.85169411  0.15587372    -0.09800
H903        H  0.31211637  0.79019420  0.06875580     0.09900
H904        H  0.21002274  0.82909113  0.12499440     0.07400
H905        H  0.31218220  0.86897282  0.18009813     0.07200
C906        C  0.59381457  0.83085921  0.12498179     0.04300
C907        C  0.61336208  0.85281002  0.09338746    -0.11900
C908        C  0.65184526  0.85320149  0.09337720     0.01800
C909        C  0.67100189  0.83158263  0.12531443    -0.10400
C910        C  0.65199460  0.80958457  0.15707308     0.04300
C911        C  0.61349979  0.80925751  0.15673489    -0.09800
H912        H  0.59864954  0.86881372  0.06798034     0.09900
H913        H  0.70070475  0.83184338  0.12541489     0.07400
H914        H  0.59887239  0.79294599  0.18197226     0.07200
O915        O  0.70927989  0.69766854  0.20568784    -0.70600
O916        O  0.65907598  0.75614229  0.29391963    -0.70900
O917        O  0.65905332  0.75544372  0.20593130    -0.70700
O918        O  0.70908439  0.69816652  0.29500513    -0.70700
O919        O  0.75308638  0.74124609  0.29417783    -0.70700
O920        O  0.70281753  0.79881420  0.20520034    -0.70700
O921        O  0.70306095  0.79926937  0.29431002    -0.70600
O922        O  0.75307348  0.74100525  0.20588161    -0.70800
V923        V  0.68506532  0.72760936  0.25013839     1.35200
V924        V  0.72711346  0.76929843  0.24988894     1.35200
C925        C  0.73977300  0.70942756  0.19078129     0.78600
C926        C  0.67240503  0.78778185  0.30887160     0.78700
C927        C  0.67219648  0.78702409  0.19070419     0.78500
C928        C  0.73963071  0.70986796  0.30969812     0.78500
O929        O  0.15743906  0.73855150  0.45629503    -0.70600
O930        O  0.20791487  0.79653679  0.04486989    -0.70900
O931        O  0.20727111  0.79678981  0.45579405    -0.70700
O932        O  0.15775776  0.73874233  0.04455153    -0.70700
O933        O  0.20153654  0.69539057  0.04463887    -0.70700
O934        O  0.25141584  0.75384999  0.45610428    -0.70700
O935        O  0.25171778  0.75321684  0.04409887    -0.70600
O936        O  0.20155587  0.69561994  0.45529590    -0.70800
V937        V  0.18349792  0.76686497  0.00036647     1.35200
V938        V  0.22562080  0.72526755  0.00002572     1.35200
C939        C  0.17090128  0.70714858  0.44078030     0.78600
C940        C  0.23856670  0.78479144  0.05933141     0.78700
C941        C  0.23794058  0.78544507  0.44120499     0.78500
C942        C  0.17108323  0.70721385  0.05964456     0.78500
C943        C  0.09325747  0.99627103  0.12550546     0.04300
C944        C  0.11265516  0.97358999  0.15638251    -0.11900
C945        C  0.15112908  0.97379684  0.15681403     0.01800
C946        C  0.17026464  0.66248418  0.12509720    -0.10400
C947        C  0.15115974  0.68471938  0.09357637     0.04300
C948        C  0.11269986  0.68536761  0.09442489    -0.09800
H949        H  0.09773876  0.95667275  0.18088726     0.09900
H950        H  0.19996986  0.66231690  0.12495107     0.07400
H951        H  0.09780127  0.70244273  0.07006493     0.07200
C952        C  0.81724762  0.99857925  0.12423191     0.04300
C953        C  0.79809433  0.68696359  0.15614738    -0.11900
C954        C  0.75962537  0.68687071  0.15677479     0.01800
C955        C  0.74036597  0.99850366  0.12482156    -0.10400
C956        C  0.75935112  0.97682329  0.09261012     0.04300
C957        C  0.79782176  0.97685108  0.09260774    -0.09800
H958        H  0.81321864  0.70356771  0.18074572     0.09900
H959        H  0.71068233  0.99842775  0.12507244     0.07400
H960        H  0.81273406  0.96012940  0.06790985     0.07200
C961        C  0.99503062  0.69915328  0.12788828     0.13800
C962        C  0.97538613  0.99701299  0.12489939     0.00800
C963        C  0.99465409  0.96126778  0.12238974     0.15700
C964        C  0.03298502  0.96099792  0.12277671     0.25200
C965        C  0.05267109  0.99649625  0.12560079    -0.41200
C966        C  0.03335703  0.69890976  0.12822501     0.32200
C967        C  0.93481290  0.99730279  0.12456944     0.00800
F968        F  0.97629670  0.92667229  0.11863029    -0.13500
F969        F  0.05163947  0.73353746  0.13216671    -0.14000
C970        C  0.91563883  0.68354110  0.09074026     0.15800
C971        C  0.87729817  0.68379866  0.09049555     0.25200
C972        C  0.85765477  0.99817330  0.12428148    -0.41100
C973        C  0.87673670  0.97869893  0.15812940     0.32100
C974        C  0.91505730  0.97810027  0.15818144     0.13800
F975        F  0.93409206  0.70195357  0.05767409    -0.13500
F976        F  0.85816641  0.95986493  0.19079435    -0.14000
F977        F  0.85928437  0.70296800  0.05764476    -0.16300
F978        F  0.93293058  0.95926100  0.19138289    -0.14800
F979        F  0.97702847  0.73398638  0.13136986    -0.14800
F980        F  0.05091341  0.92612472  0.11923524    -0.16300
C981        C  0.49508209  0.79481717  0.12995409     0.13800
C982        C  0.47545924  0.82999389  0.12433483     0.00800
C983        C  0.49471235  0.86543160  0.11896049     0.15700
C984        C  0.53306063  0.86580616  0.11957252     0.25200
C985        C  0.55296138  0.83053323  0.12481003    -0.41200
C986        C  0.53344626  0.79497827  0.12983451     0.32200
C987        C  0.43487560  0.82976789  0.12426279     0.00800
F988        F  0.47627516  0.89985651  0.11404435    -0.13500
F989        F  0.55144973  0.76016355  0.13345939    -0.14000
C990        C  0.41543795  0.82011291  0.16288380     0.15800
C991        C  0.37707620  0.82023004  0.16298986     0.25200
C992        C  0.35748979  0.82965290  0.12430171    -0.41100
C993        C  0.37704823  0.83909462  0.08556768     0.32100
C994        C  0.41542053  0.83934819  0.08564410     0.13800
F995        F  0.43368985  0.81103216  0.20065927    -0.13500
F996        F  0.35897981  0.84885329  0.04787684    -0.14000
F997        F  0.35903515  0.81039429  0.20069360    -0.16300
F998        F  0.43366491  0.84857768  0.04788572    -0.14800
F999        F  0.47700341  0.76014747  0.13468713    -0.16800
F1000       F  0.55066859  0.90088019  0.11625726    -0.16300
C1001       C  0.49530588  0.79752529  0.36040789     0.13800
C1002       C  0.47552038  0.83041428  0.37556110     0.00800
C1003       C  0.49503110  0.86352068  0.39061105     0.15700
C1004       C  0.53327320  0.86433497  0.38890873     0.25200
C1005       C  0.55325521  0.83086985  0.37529384    -0.41200
C1006       C  0.53356195  0.79716756  0.36183407     0.32200
C1007       C  0.43472560  0.83021127  0.37561489     0.00800
F1008       F  0.47713746  0.89514848  0.40758081    -0.13500
F1009       F  0.55108264  0.76329617  0.35088890    -0.14000
C1010       C  0.41522039  0.79779941  0.39244048     0.15800
C1011       C  0.37698568  0.79687592  0.39076934     0.25200
C1012       C  0.35695556  0.82975615  0.37550577    -0.41100
C1013       C  0.37669634  0.86289940  0.36038405     0.32100
C1014       C  0.41493897  0.86242041  0.35880334     0.13800
F1015       F  0.43311437  0.76693662  0.41106045    -0.13500
F1016       F  0.35929502  0.89641140  0.34792867    -0.14000
F1017       F  0.35989046  0.76317610  0.40322377    -0.16300
F1018       F  0.43256240  0.89349529  0.34022719    -0.14800
F1019       F  0.47766968  0.76566797  0.34360472    -0.14800
F1020       F  0.55048795  0.89840826  0.39975890    -0.16300
C1021       C  0.99448508  0.69827878  0.38084838     0.13800
C1022       C  0.97494795  0.99629986  0.37595269     0.00800
C1023       C  0.99421262  0.96085888  0.37058730     0.15700
C1024       C  0.03251683  0.96066385  0.37031521     0.25200
C1025       C  0.05228609  0.99605396  0.37506881    -0.41200
C1026       C  0.03277496  0.69824013  0.38019675     0.32200
C1027       C  0.93444912  0.99652965  0.37610576     0.00800
F1028       F  0.97586206  0.92628061  0.36653972    -0.13500
F1029       F  0.05070200  0.73313735  0.38342215    -0.14000
C1030       C  0.91492102  0.65044333  0.33868843     0.15800
C1031       C  0.87663598  0.65113709  0.33857374     0.25200
C1032       C  0.85735624  0.99784949  0.37589664    -0.41100
C1033       C  0.87684987  0.01044491  0.41340038     0.32100
C1034       C  0.91514897  0.00982056  0.41349218     0.13800
F1035       F  0.93298911  0.63783151  0.30205429    -0.13500
F1036       F  0.85875660  0.02394935  0.44961822    -0.14000
F1037       F  0.85831497  0.63811268  0.30232317    -0.16300
F1038       F  0.93343961  0.02175886  0.45023414    -0.14800
F1039       F  0.97639187  0.73297579  0.38530133    -0.14800
F1040       F  0.05021704  0.92567354  0.36660881    -0.16300
C1041       C  0.09302642  0.99590617  0.87497922     0.04300
C1042       C  0.11258867  0.68432022  0.90666438    -0.11900
C1043       C  0.15101499  0.68434230  0.90692192     0.01800
C1044       C  0.17010675  0.66227649  0.87509973    -0.10400
C1045       C  0.15096441  0.97368496  0.84320207     0.04300
C1046       C  0.11251737  0.97398657  0.84334064    -0.09800
H1047       H  0.09788434  0.70049259  0.93195703     0.09900
H1048       H  0.19979758  0.66218005  0.87514127     0.07400
H1049       H  0.09776311  0.95790673  0.81800864     0.07200
C1050       C  0.81693192  0.99829081  0.87581045     0.04300
C1051       C  0.79744647  0.97598933  0.90687788    -0.11900
C1052       C  0.75902121  0.97607979  0.90698363     0.01800
C1053       C  0.74007291  0.99831619  0.87522231    -0.10400
C1054       C  0.75937657  0.68721289  0.84371410     0.04300
C1055       C  0.79781881  0.68731592  0.84443554    -0.09800
H1056       H  0.81229190  0.95877996  0.93116666     0.09900
H1057       H  0.71037161  0.99828350  0.87499069     0.07400
H1058       H  0.81295273  0.70440962  0.82027464     0.07200
O1059       O  0.20800199  0.86182399  0.70487101    -0.70600
O1060       O  0.15746012  0.91946611  0.79378868    -0.70900
O1061       O  0.15776300  0.91955939  0.70554029    -0.70700
O1062       O  0.20738499  0.86127646  0.79399360    -0.70700
O1063       O  0.25144583  0.90431845  0.79382804    -0.70700
O1064       O  0.20154906  0.96291108  0.70551434    -0.70700
O1065       O  0.20152449  0.96246356  0.79481921    -0.70600
O1066       O  0.25178347  0.90516551  0.70580414    -0.70800
V1067       V  0.18355890  0.89131079  0.74956125     1.35200
V1068       V  0.22564267  0.93295618  0.75000061     1.35200
C1069       C  0.23863412  0.87366310  0.69039055     0.78600
C1070       C  0.17087352  0.95088265  0.80933104     0.78700
C1071       C  0.17107496  0.95114282  0.69055492     0.78500
C1072       C  0.23801009  0.87267224  0.80865338     0.78500
C1073       C  0.31595037  0.82946945  0.87529199     0.04300
C1074       C  0.29613851  0.80986097  0.90861871    -0.11900
C1075       C  0.25776395  0.80844443  0.90771122     0.01800
C1076       C  0.23863330  0.82897236  0.87486725    -0.10400
C1077       C  0.25780069  0.84974112  0.84222676     0.04300
C1078       C  0.29619347  0.84880664  0.84173862    -0.09800
H1079       H  0.31031917  0.79621346  0.93605818     0.09900
H1080       H  0.20894520  0.82880809  0.87473347     0.07400
H1081       H  0.31044874  0.86265715  0.81447452     0.07200
C1082       C  0.59422048  0.83109247  0.87520738     0.04300
C1083       C  0.61403220  0.81135660  0.84198275    -0.11900
C1084       C  0.65245194  0.81059888  0.84246763     0.01800
C1085       C  0.67150207  0.83142614  0.87516359    -0.10400
C1086       C  0.65228630  0.85207880  0.90787819     0.04300
C1087       C  0.61388333  0.85100344  0.90840156    -0.09800
H1088       H  0.59975793  0.79709186  0.81500528     0.09900
H1089       H  0.70120400  0.83154741  0.87515799     0.07400
H1090       H  0.59951577  0.86511540  0.93540994     0.07200
O1091       O  0.70256454  0.86426310  0.54521257    -0.70600
O1092       O  0.75249285  0.92184226  0.95603949    -0.70900
O1093       O  0.75258493  0.92230422  0.54418601    -0.70700
O1094       O  0.70272024  0.86362400  0.95611898    -0.70700
O1095       O  0.65859382  0.90658335  0.95642612    -0.70700
O1096       O  0.70863196  0.96545190  0.54444790    -0.70700
O1097       O  0.70839741  0.96481085  0.95519629    -0.70600
O1098       O  0.65858786  0.90738261  0.54445295    -0.70800
V1099       V  0.72667428  0.89378496  0.50039751     1.35200
V1100       V  0.68447671  0.93529878  0.50013523     1.35200
C1101       C  0.67190035  0.87590138  0.55972962     0.78600
C1102       C  0.73902687  0.95322894  0.94060301     0.78700
C1103       C  0.73926552  0.95392774  0.55913242     0.78500
C1104       C  0.67205895  0.87499057  0.94150986     0.78500
C1105       C  0.31679510  0.82960880  0.62438920     0.04300
C1106       C  0.29728649  0.80736019  0.59311567    -0.11900
C1107       C  0.25878337  0.80743975  0.59289788     0.01800
C1108       C  0.23972602  0.82924698  0.62482752    -0.10400
C1109       C  0.25881385  0.85123481  0.65655259     0.04300
C1110       C  0.29731553  0.85169378  0.65587326    -0.09800
H1111       H  0.31212130  0.79019089  0.56875017     0.09900
H1112       H  0.21003314  0.82908976  0.62499201     0.07400
H1113       H  0.31218122  0.86896850  0.68009068     0.07200
C1114       C  0.59381425  0.83085844  0.62498287     0.04300
C1115       C  0.61336274  0.85280999  0.59338754    -0.11900
C1116       C  0.65184533  0.85320094  0.59337803     0.01800
C1117       C  0.67100191  0.83158238  0.62531476    -0.10400
C1118       C  0.65199361  0.80958370  0.65707437     0.04300
C1119       C  0.61349948  0.80925723  0.65673564    -0.09800
H1120       H  0.59865002  0.86881298  0.56798156     0.09900
H1121       H  0.70070375  0.83184220  0.62541666     0.07400
H1122       H  0.59886899  0.79294253  0.68197804     0.07200
O1123       O  0.70927959  0.69766836  0.70568800    -0.70600
O1124       O  0.65907568  0.75614184  0.79391940    -0.70900
O1125       O  0.65905309  0.75544329  0.70593162    -0.70700
O1126       O  0.70908431  0.69816670  0.79500508    -0.70700
O1127       O  0.75308643  0.74124613  0.79417796    -0.70700
O1128       O  0.70281723  0.79881386  0.70520043    -0.70700
O1129       O  0.70306071  0.79926899  0.79430982    -0.70600
O1130       O  0.75307319  0.74100503  0.70588158    -0.70800
V1131       V  0.68506521  0.72760917  0.75013862     1.35200
V1132       V  0.72711332  0.76929831  0.74988890     1.35200
C1133       C  0.73977201  0.70942727  0.69078146     0.78600
C1134       C  0.67240425  0.78778146  0.80887131     0.78700
C1135       C  0.67219669  0.78702419  0.69070456     0.78500
C1136       C  0.73963068  0.70986844  0.80969827     0.78500
O1137       O  0.15743894  0.73855128  0.95629508    -0.70600
O1138       O  0.20791569  0.79653654  0.54486991    -0.70900
O1139       O  0.20727072  0.79678976  0.95579406    -0.70700
O1140       O  0.15775792  0.73874277  0.54455144    -0.70700
O1141       O  0.20153637  0.69539061  0.54463895    -0.70700
O1142       O  0.25141565  0.75385013  0.95610433    -0.70700
O1143       O  0.25171826  0.75321616  0.54409872    -0.70600
O1144       O  0.20155603  0.69562008  0.95529596    -0.70800
V1145       V  0.18349823  0.76686529  0.50036656     1.35200
V1146       V  0.22562064  0.72526731  0.50002563     1.35200
C1147       C  0.17090273  0.70714756  0.94078029     0.78600
C1148       C  0.23856695  0.78479159  0.55933115     0.78700
C1149       C  0.23794051  0.78544486  0.94120519     0.78500
C1150       C  0.17108337  0.70721409  0.55964422     0.78500
C1151       C  0.09325801  0.99627148  0.62550469     0.04300
C1152       C  0.11265545  0.97359024  0.65638200    -0.11900
C1153       C  0.15113112  0.97379735  0.65681320     0.01800
C1154       C  0.17026321  0.66248433  0.62509699    -0.10400
C1155       C  0.15115826  0.68472004  0.59357534     0.04300
C1156       C  0.11269965  0.68536838  0.59442368    -0.09800
H1157       H  0.09774007  0.95667284  0.68088758     0.09900
H1158       H  0.19996125  0.66231774  0.62495039     0.07400
H1159       H  0.09780140  0.70244408  0.57006303     0.07200
C1160       C  0.81724799  0.99858081  0.62423398     0.04300
C1161       C  0.79809301  0.68696371  0.65614730    -0.11900
C1162       C  0.75962430  0.68687022  0.65677412     0.01800
C1163       C  0.74036650  0.99850419  0.62482246    -0.10400
C1164       C  0.75935093  0.97682442  0.59261195     0.04300
C1165       C  0.79782172  0.97685220  0.59260944    -0.09800
H1166       H  0.81321517  0.70356580  0.68074215     0.09900
H1167       H  0.71068203  0.99842915  0.62507432     0.07400
H1168       H  0.81273275  0.96013320  0.56791528     0.07200
C1169       C  0.99503031  0.69915340  0.62788830     0.13800
C1170       C  0.97538599  0.99701287  0.62489933     0.00800
C1171       C  0.99465430  0.96126776  0.62238966     0.15700
C1172       C  0.03298504  0.96099793  0.62277672     0.25200
C1173       C  0.05267154  0.99649611  0.62560087    -0.41200
C1174       C  0.03335705  0.69891016  0.62822490     0.32200
C1175       C  0.93481294  0.99730279  0.62456934     0.00800
F1176       F  0.97629682  0.92667221  0.61863021    -0.13500
F1177       F  0.05163944  0.73353770  0.63216660    -0.14000
C1178       C  0.91563896  0.68354108  0.59074016     0.15800
C1179       C  0.87729779  0.68379888  0.59049516     0.25200
C1180       C  0.85765493  0.99817368  0.62428172    -0.41100
C1181       C  0.87673681  0.97869899  0.65812949     0.32100
C1182       C  0.91505725  0.97810020  0.65818150     0.13800
F1183       F  0.93409242  0.70195349  0.55767422    -0.13500
F1184       F  0.85816641  0.95986489  0.69079442    -0.14000
F1185       F  0.85928416  0.70296818  0.55764446    -0.16300
F1186       F  0.93293065  0.95926101  0.69138272    -0.14800
F1187       F  0.97702819  0.73398638  0.63136979    -0.14800
F1188       F  0.05091354  0.92612472  0.61923513    -0.16300
C1189       C  0.49508207  0.79481709  0.62995415     0.13800
C1190       C  0.47545925  0.82999389  0.62433494     0.00800
C1191       C  0.49471242  0.86543151  0.61896058     0.15700
C1192       C  0.53306067  0.86580592  0.61957246     0.25200
C1193       C  0.55296154  0.83053342  0.62480975    -0.41200
C1194       C  0.53344629  0.79497801  0.62983440     0.32200
C1195       C  0.43487563  0.82976795  0.62426266     0.00800
F1196       F  0.47627537  0.89985648  0.61404444    -0.13500
F1197       F  0.55144977  0.76016342  0.63345934    -0.14000
C1198       C  0.41543785  0.82011297  0.66288355     0.15800
C1199       C  0.37707635  0.82023000  0.66298956     0.25200
C1200       C  0.35749026  0.82965263  0.62430201    -0.41100
C1201       C  0.37704849  0.83909477  0.58556721     0.32100
C1202       C  0.41542072  0.83934834  0.58564381     0.13800
F1203       F  0.43368968  0.81103207  0.70065890    -0.13500
F1204       F  0.35897982  0.84885336  0.54787670    -0.14000
F1205       F  0.35903522  0.81039418  0.70069368    -0.16300
F1206       F  0.43366527  0.84857778  0.54788555    -0.14800
F1207       F  0.47700343  0.76014742  0.63468728    -0.16800
F1208       F  0.55066860  0.90088011  0.61625711    -0.16300
C1209       C  0.49530586  0.79752487  0.86040782     0.13800
C1210       C  0.47552028  0.83041422  0.87556107     0.00800
C1211       C  0.49503131  0.86352022  0.89061085     0.15700
C1212       C  0.53327319  0.86433458  0.88890872     0.25200
C1213       C  0.55325508  0.83087035  0.87529473    -0.41200
C1214       C  0.53356192  0.79716723  0.86183414     0.32200
C1215       C  0.43472572  0.83021119  0.87561488     0.00800
F1216       F  0.47713758  0.89514819  0.90758054    -0.13500
F1217       F  0.55108246  0.76329586  0.85088915    -0.14000
C1218       C  0.41522023  0.79779963  0.89244037     0.15800
C1219       C  0.37698566  0.79687588  0.89076942     0.25200
C1220       C  0.35695547  0.82975620  0.87550567    -0.41100
C1221       C  0.37669626  0.86289895  0.86038388     0.32100
C1222       C  0.41493891  0.86242054  0.85880316     0.13800
F1223       F  0.43311412  0.76693661  0.91106042    -0.13500
F1224       F  0.35929467  0.89641077  0.84792833    -0.14000
F1225       F  0.35989064  0.76317621  0.90322385    -0.16300
F1226       F  0.43256246  0.89349538  0.84022697    -0.14800
F1227       F  0.47766943  0.76566770  0.84360462    -0.14800
F1228       F  0.55048792  0.89840798  0.89975909    -0.16300
C1229       C  0.99448530  0.69827888  0.88084834     0.13800
C1230       C  0.97494787  0.99629990  0.87595271     0.00800
C1231       C  0.99421263  0.96085893  0.87058748     0.15700
C1232       C  0.03251670  0.96066382  0.87031553     0.25200
C1233       C  0.05228641  0.99605434  0.87506923    -0.41200
C1234       C  0.03277504  0.69824027  0.88019670     0.32200
C1235       C  0.93444922  0.99652965  0.87610582     0.00800
F1236       F  0.97586219  0.92628060  0.86653988    -0.13500
F1237       F  0.05070222  0.73313751  0.88342211    -0.14000
C1238       C  0.91492115  0.65044322  0.83868817     0.15800
C1239       C  0.87663613  0.65113721  0.83857370     0.25200
C1240       C  0.85735593  0.99784939  0.87589705    -0.41100
C1241       C  0.87684996  0.01044475  0.91340014     0.32100
C1242       C  0.91514887  0.00982044  0.91349186     0.13800
F1243       F  0.93298933  0.63783147  0.80205419    -0.13500
F1244       F  0.85875693  0.02394943  0.94961808    -0.14000
F1245       F  0.85831502  0.63811266  0.80232321    -0.16300
F1246       F  0.93343948  0.02175888  0.95023402    -0.14800
F1247       F  0.97639187  0.73297581  0.88530130    -0.14800
F1248       F  0.05021684  0.92567349  0.86660907    -0.16300
loop_ 
_geom_bond_atom_site_label_1 
_geom_bond_atom_site_label_2 
_geom_bond_distance 
_geom_bond_site_symmetry_2 
_ccdc_geom_bond_type 
C1            C6   1.405       .  A
C1          C418   1.405       .  A
C1          C193   1.487       .  S
C2            C3   1.403       .  A
C2          C833   1.405   1_545  A
C2            H7   1.083       .  S
C3            C4   1.404   1_545  A
C3          C107   1.475       .  S
C4          C837   1.405       .  A
C4            H8   1.084       .  S
C5            C6   1.403       .  A
C5          C420   1.405       .  A
C5           C30   1.475       .  S
C6            H9   1.084       .  S
C10          C11   1.401       .  A
C10         C431   1.402       .  A
C10         C200   1.476       .  S
C11          C12   1.403       .  A
C11          H16   1.084       .  S
C12          C13   1.404       .  A
C12          C62   1.472       .  S
C13         C430   1.405       .  A
C13          H17   1.084       .  S
C14          C15   1.403       .  A
C14         C845   1.405   1_545  A
C14          C96   1.473       .  S
C15         C842   1.402   1_545  A
C15          H18   1.084       .  S
O19          V27   1.903       .  S
O19          C29   1.266       .  A
O20          V27   1.900       .  S
O20          C30   1.265       .  A
O21          V27   1.892       .  S
O21          C31   1.262       .  A
O22          V27   1.898       .  S
O22          C32   1.263       .  A
O23          V28   1.895       .  S
O23          C32   1.264       .  A
O24          V28   1.903       .  S
O24          C31   1.266       .  A
O25          V28   1.901       .  S
O25          C30   1.264       .  A
O26          V28   1.893       .  S
O26          C29   1.262       .  A
V27          V28   2.089       .  T
C29          C69   1.473       .  S
C31         C113   1.471       .  S
C32          C37   1.470       .  S
C33          C34   1.408       .  A
C33          C38   1.408       .  A
C33         C180   1.497       .  S
C34          C35   1.402       .  A
C34          H39   1.082       .  S
C35          C36   1.400       .  A
C35         C109   1.469       .  S
C36          C37   1.400       .  A
C36          H40   1.084       .  S
C37          C38   1.402       .  A
C38          H41   1.082       .  S
C42          C43   1.407       .  A
C42          C47   1.407       .  A
C42         C173   1.495       .  S
C43          C44   1.403       .  A
C43          H48   1.082       .  S
C44          C45   1.400       .  A
C44          C94   1.470       .  S
C45          C46   1.401       .  A
C45          H49   1.084       .  S
C46          C47   1.402       .  A
C46          C64   1.470       .  S
C47          H50   1.082       .  S
O51          V59   1.901       .  S
O51          C61   1.265       .  A
O52         V267   1.896       .  S
O52          C62   1.264       .  A
O53          V59   1.894       .  S
O53          C63   1.263       .  A
O54         V267   1.899       .  S
O54          C64   1.264       .  A
O55         V268   1.895       .  S
O55          C64   1.264       .  A
O56          V60   1.903       .  S
O56          C63   1.265       .  A
O57         V268   1.901       .  S
O57          C62   1.264       .  A
O58          V60   1.894       .  S
O58          C61   1.263       .  A
V59         O260   1.896   1_554  S
V59         O262   1.899   1_554  S
V59          V60   2.089       .  T
V60         O263   1.895   1_554  S
V60         O265   1.901   1_554  S
C61          C76   1.471       .  S
C63         C124   1.472       .  S
C65          C66   1.404       .  A
C65          C70   1.405       .  A
C65         C160   1.485       .  S
C66          C67   1.405       .  A
C66          H71   1.084       .  S
C67          C68   1.401       .  A
C67         C108   1.472       .  S
C68          C69   1.401       .  A
C68          H72   1.084       .  S
C69          C70   1.406       .  A
C70          H73   1.084       .  S
C74          C75   1.406       .  A
C74          C79   1.406       .  A
C74         C153   1.491       .  S
C75          C76   1.405       .  A
C75          H80   1.084       .  S
C76          C77   1.401       .  A
C77          C78   1.401       .  A
C77          H81   1.084       .  S
C78          C79   1.405       .  A
C78          C95   1.472       .  S
C79          H82   1.084       .  S
O83          V91   1.903       .  S
O83          C93   1.265       .  A
O84          V91   1.895       .  S
O84          C94   1.264       .  A
O85          V91   1.893       .  S
O85          C95   1.262       .  A
O86          V91   1.900       .  S
O86          C96   1.264       .  A
O87          V92   1.898       .  S
O87          C96   1.264       .  A
O88          V92   1.902       .  S
O88          C95   1.266       .  A
O89          V92   1.900       .  S
O89          C94   1.264       .  A
O90          V92   1.895       .  S
O90          C93   1.263       .  A
V91          V92   2.089       .  T
C93         C122   1.472       .  S
O97         V313   1.899       .  S
O97         C107   1.265       .  A
O98         V105   1.903       .  S
O98         C108   1.266       .  A
O99         V313   1.898       .  S
O99         C109   1.263       .  A
O100        V105   1.892       .  S
O100        C110   1.262       .  A
O101        V106   1.903       .  S
O101        C110   1.266       .  A
O102        V314   1.895       .  S
O102        C109   1.264       .  A
O103        V106   1.893       .  S
O103        C108   1.262       .  A
O104        V314   1.901       .  S
O104        C107   1.264       .  A
V105        O305   1.899   1_554  S
V105        O307   1.898   1_554  S
V105        V106   2.089       .  T
V106        O310   1.895   1_554  S
V106        O312   1.901   1_554  S
C110        C115   1.471       .  S
C111        C112   1.403       .  A
C111        C532   1.403       .  A
C111        C133   1.481       .  S
C112        C113   1.404       .  A
C112        H117   1.084       .  S
C113        C530   1.402       .  A
C114        C115   1.402   1_565  A
C114        C945   1.402       .  A
C114        H118   1.084       .  S
C115        C116   1.404       .  A
C116        C943   1.403   1_545  A
C116        H119   1.084       .  S
C120        C125   1.401       .  A
C120        C537   1.401       .  A
C120        C140   1.475       .  S
C121        C122   1.404       .  A
C121        C952   1.401   1_545  A
C121        H126   1.084       .  S
C122        C955   1.404   1_545  A
C123        C124   1.404       .  A
C123        C538   1.404       .  A
C123        H127   1.084       .  S
C124        C125   1.404       .  A
C125        H128   1.085       .  S
C129        C134   1.399   1_655  A
C129        C962   1.405   1_545  A
C129        F147   1.358       .  S
C130        C131   1.406       .  A
C130        C545   1.405       .  A
C130        C135   1.481       .  S
C131        C132   1.399   1_655  A
C131        F136   1.358       .  S
C132        C133   1.407       .  A
C132        F148   1.358       .  S
C133        C550   1.407       .  A
C134        C965   1.407   1_545  A
C134        F137   1.358       .  S
C135        C142   1.406       .  A
C135        C554   1.407       .  A
C138        C139   1.399       .  A
C138        C967   1.407   1_545  A
C138        F143   1.358       .  S
C139        C972   1.404   1_545  A
C139        F145   1.358       .  S
C140        C141   1.404       .  A
C140        C555   1.404       .  A
C141        C142   1.399       .  A
C141        F144   1.358       .  S
C142        F146   1.358       .  S
C149        C150   1.404       .  A
C149        C154   1.400       .  A
C149        F167   1.358       .  S
C150        C151   1.404       .  A
C150        C155   1.481       .  S
C151        C152   1.400       .  A
C151        F156   1.358       .  S
C152        C153   1.411       .  A
C152        F168   1.358       .  S
C153        C154   1.411       .  A
C154        F157   1.358       .  S
C155        C158   1.405       .  A
C155        C162   1.405       .  A
C158        C159   1.400       .  A
C158        F163   1.358       .  S
C159        C160   1.408       .  A
C159        F165   1.358       .  S
C160        C161   1.408       .  A
C161        C162   1.401       .  A
C161        F164   1.358       .  S
C162        F166   1.358       .  S
C169        C170   1.407       .  A
C169        C174   1.397       .  A
C169        F187   1.358       .  S
C170        C171   1.407       .  A
C170        C175   1.489       .  S
C171        C172   1.397       .  A
C171        F176   1.358       .  S
C172        C173   1.412       .  A
C172        F188   1.357       .  S
C173        C174   1.412       .  A
C174        F177   1.357       .  S
C175        C178   1.407       .  A
C175        C182   1.407       .  A
C178        C179   1.397       .  A
C178        F183   1.358       .  S
C179        C180   1.413       .  A
C179        F185   1.357       .  S
C180        C181   1.413       .  A
C181        C182   1.397       .  A
C181        F184   1.357       .  S
C182        F186   1.358       .  S
C189        C194   1.398   1_655  A
C189       C1022   1.404   1_545  A
C189        F207   1.358       .  S
C190        C191   1.404       .  A
C190        C605   1.404       .  A
C190        C195   1.478       .  S
C191        C192   1.398   1_655  A
C191        F196   1.358       .  S
C192        C193   1.410       .  A
C192        F208   1.358       .  S
C193        C610   1.410       .  A
C194       C1025   1.410   1_545  A
C194        F197   1.358       .  S
C195        C202   1.406       .  A
C195        C614   1.406       .  A
C198        C199   1.398       .  A
C198       C1027   1.406       .  A
C198        F203   1.358       .  S
C199       C1032   1.405       .  A
C199        F205   1.358       .  S
C200        C201   1.405       .  A
C200        C615   1.405       .  A
C201        C202   1.398       .  A
C201        F204   1.358       .  S
C202        F206   1.358       .  S
C209        C626   1.405       .  A
C209        C214   1.405       .  A
C209        C401   1.487       .  S
C210       C1041   1.405   1_545  A
C210        C211   1.403       .  A
C210        H215   1.084       .  S
C211        C212   1.404   1_545  A
C211        C315   1.475       .  S
C212       C1045   1.405       .  A
C212        H216   1.084       .  S
C213        C628   1.405       .  A
C213        C214   1.403       .  A
C213        C238   1.475       .  S
C214        H217   1.084       .  S
C218        C219   1.401       .  A
C218        C639   1.402       .  A
C218        C408   1.475       .  S
C219        C220   1.402       .  A
C219        H224   1.084       .  S
C220        C221   1.404       .  A
C220        C270   1.472       .  S
C221        C638   1.405       .  A
C221        H225   1.084       .  S
C222       C1053   1.405   1_545  A
C222        C223   1.403       .  A
C222        C304   1.473       .  S
C223       C1050   1.402   1_545  A
C223        H226   1.084       .  S
O227        V235   1.903       .  S
O227        C237   1.266       .  A
O228        V235   1.900       .  S
O228        C238   1.265       .  A
O229        V235   1.892       .  S
O229        C239   1.262       .  A
O230        V235   1.898       .  S
O230        C240   1.263       .  A
O231        V236   1.895       .  S
O231        C240   1.264       .  A
O232        V236   1.903       .  S
O232        C239   1.266       .  A
O233        V236   1.901       .  S
O233        C238   1.264       .  A
O234        V236   1.893       .  S
O234        C237   1.262       .  A
V235        V236   2.089       .  T
C237        C277   1.473       .  S
C239        C321   1.471       .  S
C240        C245   1.470       .  S
C241        C242   1.408       .  A
C241        C246   1.408       .  A
C241        C388   1.497       .  S
C242        C243   1.402       .  A
C242        H247   1.082       .  S
C243        C244   1.400       .  A
C243        C317   1.469       .  S
C244        C245   1.400       .  A
C244        H248   1.084       .  S
C245        C246   1.402       .  A
C246        H249   1.082       .  S
C250        C251   1.407       .  A
C250        C255   1.407       .  A
C250        C381   1.495       .  S
C251        C252   1.403       .  A
C251        H256   1.082       .  S
C252        C253   1.400       .  A
C252        C302   1.470       .  S
C253        C254   1.401       .  A
C253        H257   1.084       .  S
C254        C255   1.402       .  A
C254        C272   1.470       .  S
C255        H258   1.082       .  S
O259        V267   1.901       .  S
O259        C269   1.265       .  A
O260        C270   1.264       .  A
O261        V267   1.894       .  S
O261        C271   1.263       .  A
O262        C272   1.264       .  A
O263        C272   1.264       .  A
O264        V268   1.903       .  S
O264        C271   1.265       .  A
O265        C270   1.264       .  A
O266        V268   1.894       .  S
O266        C269   1.263       .  A
V267        V268   2.089       .  T
C269        C284   1.471       .  S
C271        C332   1.472       .  S
C273        C274   1.404       .  A
C273        C278   1.405       .  A
C273        C368   1.485       .  S
C274        C275   1.405       .  A
C274        H279   1.084       .  S
C275        C276   1.401       .  A
C275        C316   1.472       .  S
C276        C277   1.401       .  A
C276        H280   1.084       .  S
C277        C278   1.406       .  A
C278        H281   1.084       .  S
C282        C283   1.406       .  A
C282        C287   1.406       .  A
C282        C361   1.491       .  S
C283        C284   1.405       .  A
C283        H288   1.084       .  S
C284        C285   1.401       .  A
C285        C286   1.401       .  A
C285        H289   1.084       .  S
C286        C287   1.405       .  A
C286        C303   1.472       .  S
C287        H290   1.084       .  S
O291        V299   1.903       .  S
O291        C301   1.265       .  A
O292        V299   1.895       .  S
O292        C302   1.264       .  A
O293        V299   1.893       .  S
O293        C303   1.262       .  A
O294        V299   1.900       .  S
O294        C304   1.264       .  A
O295        V300   1.898       .  S
O295        C304   1.264       .  A
O296        V300   1.902       .  S
O296        C303   1.266       .  A
O297        V300   1.900       .  S
O297        C302   1.264       .  A
O298        V300   1.895       .  S
O298        C301   1.263       .  A
V299        V300   2.089       .  T
C301        C330   1.472       .  S
O305        C315   1.265       .  A
O306        V313   1.903       .  S
O306        C316   1.266       .  A
O307        C317   1.263       .  A
O308        V313   1.892       .  S
O308        C318   1.262       .  A
O309        V314   1.903       .  S
O309        C318   1.266       .  A
O310        C317   1.264       .  A
O311        V314   1.893       .  S
O311        C316   1.262       .  A
O312        C315   1.264       .  A
V313        V314   2.089       .  T
C318        C323   1.471       .  S
C319        C320   1.403       .  A
C319        C740   1.403       .  A
C319        C341   1.481       .  S
C320        C321   1.404       .  A
C320        H325   1.084       .  S
C321        C738   1.402       .  A
C322       C1153   1.402       .  A
C322        C323   1.402   1_565  A
C322        H326   1.084       .  S
C323        C324   1.404       .  A
C324       C1151   1.402   1_545  A
C324        H327   1.084       .  S
C328        C745   1.401       .  A
C328        C333   1.401       .  A
C328        C348   1.475       .  S
C329       C1160   1.401   1_545  A
C329        C330   1.404       .  A
C329        H334   1.084       .  S
C330       C1163   1.404   1_545  A
C331        C746   1.404       .  A
C331        C332   1.404       .  A
C331        H335   1.083       .  S
C332        C333   1.404       .  A
C333        H336   1.085       .  S
C337       C1170   1.405   1_545  A
C337        C342   1.399   1_655  A
C337        F355   1.358       .  S
C338        C753   1.405       .  A
C338        C339   1.406       .  A
C338        C343   1.481       .  S
C339        C340   1.399   1_655  A
C339        F344   1.358       .  S
C340        C341   1.407       .  A
C340        F356   1.358       .  S
C341        C758   1.407       .  A
C342       C1173   1.407   1_545  A
C342        F345   1.358       .  S
C343        C762   1.407       .  A
C343        C350   1.406       .  A
C346       C1175   1.407   1_545  A
C346        C347   1.399       .  A
C346        F351   1.358       .  S
C347       C1180   1.404   1_545  A
C347        F353   1.358       .  S
C348        C763   1.404       .  A
C348        C349   1.404       .  A
C349        C350   1.399       .  A
C349        F352   1.358       .  S
C350        F354   1.358       .  S
C357        C358   1.404       .  A
C357        C362   1.400       .  A
C357        F375   1.358       .  S
C358        C359   1.404       .  A
C358        C363   1.481       .  S
C359        C360   1.400       .  A
C359        F364   1.358       .  S
C360        C361   1.411       .  A
C360        F376   1.358       .  S
C361        C362   1.411       .  A
C362        F365   1.358       .  S
C363        C366   1.405       .  A
C363        C370   1.405       .  A
C366        C367   1.400       .  A
C366        F371   1.358       .  S
C367        C368   1.408       .  A
C367        F373   1.358       .  S
C368        C369   1.408       .  A
C369        C370   1.401       .  A
C369        F372   1.358       .  S
C370        F374   1.358       .  S
C377        C378   1.407       .  A
C377        C382   1.397       .  A
C377        F395   1.358       .  S
C378        C379   1.407       .  A
C378        C383   1.489       .  S
C379        C380   1.397       .  A
C379        F384   1.358       .  S
C380        C381   1.412       .  A
C380        F396   1.357       .  S
C381        C382   1.412       .  A
C382        F385   1.357       .  S
C383        C386   1.407       .  A
C383        C390   1.407       .  A
C386        C387   1.397       .  A
C386        F391   1.358       .  S
C387        C388   1.413       .  A
C387        F393   1.357       .  S
C388        C389   1.413       .  A
C389        C390   1.397       .  A
C389        F392   1.357       .  S
C390        F394   1.358       .  S
C397       C1230   1.404   1_545  A
C397        C402   1.398   1_655  A
C397        F415   1.358       .  S
C398        C813   1.404       .  A
C398        C399   1.404       .  A
C398        C403   1.478       .  S
C399        C400   1.398   1_655  A
C399        F404   1.358       .  S
C400        C401   1.410       .  A
C400        F416   1.358       .  S
C401        C818   1.410       .  A
C402       C1233   1.410   1_545  A
C402        F405   1.358       .  S
C403        C822   1.406       .  A
C403        C410   1.406       .  A
C406       C1235   1.406       .  A
C406        C407   1.398       .  A
C406        F411   1.358       .  S
C407       C1240   1.405       .  A
C407        F413   1.358       .  S
C408        C823   1.405       .  A
C408        C409   1.405       .  A
C409        C410   1.398       .  A
C409        F412   1.358       .  S
C410        F414   1.358       .  S
C417        C834   1.405       .  A
C417        C422   1.405       .  A
C417        C609   1.487       .  S
C418        C419   1.403       .  A
C418        H423   1.084       .  S
C419        C420   1.404       .  A
C419        C523   1.475       .  S
C420        H424   1.084       .  S
C421        C836   1.405       .  A
C421        C422   1.403       .  A
C421        C446   1.475       .  S
C422        H425   1.084       .  S
C426        C427   1.401       .  A
C426        C847   1.402       .  A
C426        C616   1.476       .  S
C427        C428   1.403       .  A
C427        H432   1.084       .  S
C428        C429   1.404       .  A
C428        C478   1.472       .  S
C429        C846   1.405       .  A
C429        H433   1.084       .  S
C430        C431   1.403       .  A
C430        C512   1.473       .  S
C431        H434   1.084       .  S
O435        V443   1.903       .  S
O435        C445   1.266       .  A
O436        V443   1.900       .  S
O436        C446   1.265       .  A
O437        V443   1.892       .  S
O437        C447   1.262       .  A
O438        V443   1.898       .  S
O438        C448   1.263       .  A
O439        V444   1.895       .  S
O439        C448   1.264       .  A
O440        V444   1.903       .  S
O440        C447   1.266       .  A
O441        V444   1.901       .  S
O441        C446   1.264       .  A
O442        V444   1.893       .  S
O442        C445   1.262       .  A
V443        V444   2.089       .  T
C445        C485   1.472       .  S
C447        C529   1.471       .  S
C448        C453   1.470       .  S
C449        C450   1.408       .  A
C449        C454   1.408       .  A
C449        C596   1.497       .  S
C450        C451   1.402       .  A
C450        H455   1.083       .  S
C451        C452   1.400       .  A
C451        C525   1.469       .  S
C452        C453   1.400       .  A
C452        H456   1.084       .  S
C453        C454   1.402       .  A
C454        H457   1.082       .  S
C458        C459   1.407       .  A
C458        C463   1.407       .  A
C458        C589   1.495       .  S
C459        C460   1.403       .  A
C459        H464   1.082       .  S
C460        C461   1.400       .  A
C460        C510   1.470       .  S
C461        C462   1.401       .  A
C461        H465   1.084       .  S
C462        C463   1.402       .  A
C462        C480   1.470       .  S
C463        H466   1.082       .  S
O467        V475   1.901       .  S
O467        C477   1.265       .  A
O468        V683   1.896       .  S
O468        C478   1.264       .  A
O469        V475   1.894       .  S
O469        C479   1.263       .  A
O470        V683   1.899       .  S
O470        C480   1.264       .  A
O471        V684   1.895       .  S
O471        C480   1.264       .  A
O472        V476   1.903       .  S
O472        C479   1.265       .  A
O473        V684   1.901       .  S
O473        C478   1.264       .  A
O474        V476   1.894       .  S
O474        C477   1.263       .  A
V475        O676   1.896   1_554  S
V475        O678   1.899   1_554  S
V475        V476   2.089       .  T
V476        O679   1.895   1_554  S
V476        O681   1.901   1_554  S
C477        C492   1.471       .  S
C479        C540   1.472       .  S
C481        C482   1.404       .  A
C481        C486   1.405       .  A
C481        C576   1.485       .  S
C482        C483   1.405       .  A
C482        H487   1.084       .  S
C483        C484   1.401       .  A
C483        C524   1.472       .  S
C484        C485   1.401       .  A
C484        H488   1.084       .  S
C485        C486   1.406       .  A
C486        H489   1.084       .  S
C490        C491   1.406       .  A
C490        C495   1.406       .  A
C490        C569   1.491       .  S
C491        C492   1.405       .  A
C491        H496   1.084       .  S
C492        C493   1.401       .  A
C493        C494   1.401       .  A
C493        H497   1.084       .  S
C494        C495   1.405       .  A
C494        C511   1.472       .  S
C495        H498   1.084       .  S
O499        V507   1.903       .  S
O499        C509   1.265       .  A
O500        V507   1.895       .  S
O500        C510   1.264       .  A
O501        V507   1.893       .  S
O501        C511   1.262       .  A
O502        V507   1.900       .  S
O502        C512   1.264       .  A
O503        V508   1.898       .  S
O503        C512   1.264       .  A
O504        V508   1.902       .  S
O504        C511   1.266       .  A
O505        V508   1.900       .  S
O505        C510   1.264       .  A
O506        V508   1.895       .  S
O506        C509   1.263       .  A
V507        V508   2.089       .  T
C509        C538   1.472       .  S
O513        V729   1.899       .  S
O513        C523   1.265       .  A
O514        V521   1.903       .  S
O514        C524   1.266       .  A
O515        V729   1.898       .  S
O515        C525   1.263       .  A
O516        V521   1.892       .  S
O516        C526   1.262       .  A
O517        V522   1.903       .  S
O517        C526   1.266       .  A
O518        V730   1.895       .  S
O518        C525   1.264       .  A
O519        V522   1.893       .  S
O519        C524   1.262       .  A
O520        V730   1.901       .  S
O520        C523   1.264       .  A
V521        O721   1.899   1_554  S
V521        O723   1.898   1_554  S
V521        V522   2.089       .  T
V522        O726   1.895   1_554  S
V522        O728   1.901   1_554  S
C526        C531   1.471       .  S
C527        C528   1.403       .  A
C527        C948   1.403       .  A
C527        C549   1.481       .  S
C528        C529   1.404       .  A
C528        H533   1.084       .  S
C529        C946   1.402       .  A
C530        C531   1.402       .  A
C530        H534   1.084       .  S
C531        C532   1.404       .  A
C532        H535   1.084       .  S
C536        C953   1.401       .  A
C536        C541   1.401       .  A
C536        C556   1.475       .  S
C537        C538   1.404       .  A
C537        H542   1.084       .  S
C539        C954   1.404       .  A
C539        C540   1.404       .  A
C539        H543   1.083       .  S
C540        C541   1.404       .  A
C541        H544   1.084       .  S
C545        C550   1.399   1_655  A
C545        F563   1.358       .  S
C546        C961   1.405       .  A
C546        C547   1.406       .  A
C546        C551   1.481       .  S
C547        C548   1.399   1_655  A
C547        F552   1.358       .  S
C548        C549   1.407       .  A
C548        F564   1.358       .  S
C549        C966   1.407       .  A
C550        F553   1.358       .  S
C551        C970   1.407       .  A
C551        C558   1.406       .  A
C554        C555   1.399       .  A
C554        F559   1.358       .  S
C555        F561   1.358       .  S
C556        C971   1.404       .  A
C556        C557   1.404       .  A
C557        C558   1.399       .  A
C557        F560   1.358       .  S
C558        F562   1.358       .  S
C565        C566   1.404       .  A
C565        C570   1.400       .  A
C565        F583   1.358       .  S
C566        C567   1.404       .  A
C566        C571   1.481       .  S
C567        C568   1.400       .  A
C567        F572   1.358       .  S
C568        C569   1.411       .  A
C568        F584   1.358       .  S
C569        C570   1.411       .  A
C570        F573   1.358       .  S
C571        C574   1.405       .  A
C571        C578   1.405       .  A
C574        C575   1.400       .  A
C574        F579   1.358       .  S
C575        C576   1.408       .  A
C575        F581   1.358       .  S
C576        C577   1.408       .  A
C577        C578   1.401       .  A
C577        F580   1.358       .  S
C578        F582   1.358       .  S
C585        C586   1.407       .  A
C585        C590   1.397       .  A
C585        F603   1.358       .  S
C586        C587   1.407       .  A
C586        C591   1.489       .  S
C587        C588   1.397       .  A
C587        F592   1.358       .  S
C588        C589   1.412       .  A
C588        F604   1.357       .  S
C589        C590   1.412       .  A
C590        F593   1.357       .  S
C591        C594   1.407       .  A
C591        C598   1.407       .  A
C594        C595   1.397       .  A
C594        F599   1.358       .  S
C595        C596   1.413       .  A
C595        F601   1.357       .  S
C596        C597   1.413       .  A
C597        C598   1.397       .  A
C597        F600   1.357       .  S
C598        F602   1.358       .  S
C605        C610   1.398   1_655  A
C605        F623   1.358       .  S
C606       C1021   1.404       .  A
C606        C607   1.404       .  A
C606        C611   1.478       .  S
C607        C608   1.398   1_655  A
C607        F612   1.358       .  S
C608        C609   1.410       .  A
C608        F624   1.358       .  S
C609       C1026   1.410       .  A
C610        F613   1.358       .  S
C611       C1030   1.406       .  A
C611        C618   1.406       .  A
C614        C615   1.398       .  A
C614        F619   1.358       .  S
C615        F621   1.358       .  S
C616       C1031   1.405       .  A
C616        C617   1.405       .  A
C617        C618   1.398       .  A
C617        F620   1.358       .  S
C618        F622   1.358       .  S
C625       C1042   1.405       .  A
C625        C630   1.405       .  A
C625        C817   1.487       .  S
C626        C627   1.403       .  A
C626        H631   1.084       .  S
C627        C628   1.404       .  A
C627        C731   1.475       .  S
C628        H632   1.084       .  S
C629       C1044   1.405       .  A
C629        C630   1.403       .  A
C629        C654   1.475       .  S
C630        H633   1.084       .  S
C634        C635   1.401       .  A
C634       C1055   1.402       .  A
C634        C824   1.476       .  S
C635        C636   1.402       .  A
C635        H640   1.084       .  S
C636        C637   1.404       .  A
C636        C686   1.472       .  S
C637       C1054   1.405       .  A
C637        H641   1.084       .  S
C638        C639   1.403       .  A
C638        C720   1.473       .  S
C639        H642   1.084       .  S
O643        V651   1.903       .  S
O643        C653   1.266       .  A
O644        V651   1.900       .  S
O644        C654   1.265       .  A
O645        V651   1.892       .  S
O645        C655   1.262       .  A
O646        V651   1.898       .  S
O646        C656   1.263       .  A
O647        V652   1.895       .  S
O647        C656   1.264       .  A
O648        V652   1.903       .  S
O648        C655   1.266       .  A
O649        V652   1.901       .  S
O649        C654   1.264       .  A
O650        V652   1.893       .  S
O650        C653   1.262       .  A
V651        V652   2.089       .  T
C653        C693   1.472       .  S
C655        C737   1.471       .  S
C656        C661   1.470       .  S
C657        C658   1.408       .  A
C657        C662   1.408       .  A
C657        C804   1.497       .  S
C658        C659   1.402       .  A
C658        H663   1.082       .  S
C659        C660   1.400       .  A
C659        C733   1.469       .  S
C660        C661   1.400       .  A
C660        H664   1.084       .  S
C661        C662   1.402       .  A
C662        H665   1.082       .  S
C666        C667   1.407       .  A
C666        C671   1.407       .  A
C666        C797   1.495       .  S
C667        C668   1.403       .  A
C667        H672   1.082       .  S
C668        C669   1.400       .  A
C668        C718   1.470       .  S
C669        C670   1.400       .  A
C669        H673   1.084       .  S
C670        C671   1.402       .  A
C670        C688   1.470       .  S
C671        H674   1.082       .  S
O675        V683   1.901       .  S
O675        C685   1.265       .  A
O676        C686   1.264       .  A
O677        V683   1.894       .  S
O677        C687   1.263       .  A
O678        C688   1.264       .  A
O679        C688   1.264       .  A
O680        V684   1.903       .  S
O680        C687   1.265       .  A
O681        C686   1.264       .  A
O682        V684   1.894       .  S
O682        C685   1.263       .  A
V683        V684   2.089       .  T
C685        C700   1.471       .  S
C687        C748   1.472       .  S
C689        C690   1.404       .  A
C689        C694   1.405       .  A
C689        C784   1.485       .  S
C690        C691   1.405       .  A
C690        H695   1.084       .  S
C691        C692   1.401       .  A
C691        C732   1.472       .  S
C692        C693   1.401       .  A
C692        H696   1.084       .  S
C693        C694   1.406       .  A
C694        H697   1.084       .  S
C698        C699   1.406       .  A
C698        C703   1.406       .  A
C698        C777   1.491       .  S
C699        C700   1.405       .  A
C699        H704   1.084       .  S
C700        C701   1.401       .  A
C701        C702   1.401       .  A
C701        H705   1.084       .  S
C702        C703   1.405       .  A
C702        C719   1.472       .  S
C703        H706   1.084       .  S
O707        V715   1.903       .  S
O707        C717   1.265       .  A
O708        V715   1.895       .  S
O708        C718   1.264       .  A
O709        V715   1.893       .  S
O709        C719   1.262       .  A
O710        V715   1.900       .  S
O710        C720   1.264       .  A
O711        V716   1.898       .  S
O711        C720   1.264       .  A
O712        V716   1.902       .  S
O712        C719   1.266       .  A
O713        V716   1.900       .  S
O713        C718   1.264       .  A
O714        V716   1.895       .  S
O714        C717   1.263       .  A
V715        V716   2.089       .  T
C717        C746   1.472       .  S
O721        C731   1.265       .  A
O722        V729   1.903       .  S
O722        C732   1.266       .  A
O723        C733   1.263       .  A
O724        V729   1.892       .  S
O724        C734   1.262       .  A
O725        V730   1.903       .  S
O725        C734   1.266       .  A
O726        C733   1.264       .  A
O727        V730   1.893       .  S
O727        C732   1.262       .  A
O728        C731   1.264       .  A
V729        V730   2.089       .  T
C734        C739   1.471       .  S
C735        C736   1.403       .  A
C735       C1156   1.403       .  A
C735        C757   1.481       .  S
C736        C737   1.404       .  A
C736        H741   1.084       .  S
C737       C1154   1.402       .  A
C738        C739   1.402       .  A
C738        H742   1.084       .  S
C739        C740   1.404       .  A
C740        H743   1.084       .  S
C744       C1161   1.401       .  A
C744        C749   1.401       .  A
C744        C764   1.475       .  S
C745        C746   1.404       .  A
C745        H750   1.084       .  S
C747       C1162   1.404       .  A
C747        C748   1.404       .  A
C747        H751   1.083       .  S
C748        C749   1.404       .  A
C749        H752   1.084       .  S
C753        C758   1.399   1_655  A
C753        F771   1.358       .  S
C754       C1169   1.405       .  A
C754        C755   1.406       .  A
C754        C759   1.481       .  S
C755        C756   1.399   1_655  A
C755        F760   1.358       .  S
C756        C757   1.407       .  A
C756        F772   1.358       .  S
C757       C1174   1.407       .  A
C758        F761   1.358       .  S
C759       C1178   1.407       .  A
C759        C766   1.406       .  A
C762        C763   1.399       .  A
C762        F767   1.358       .  S
C763        F769   1.358       .  S
C764       C1179   1.404       .  A
C764        C765   1.404       .  A
C765        C766   1.399       .  A
C765        F768   1.358       .  S
C766        F770   1.358       .  S
C773        C774   1.404       .  A
C773        C778   1.400       .  A
C773        F791   1.358       .  S
C774        C775   1.404       .  A
C774        C779   1.481       .  S
C775        C776   1.400       .  A
C775        F780   1.358       .  S
C776        C777   1.411       .  A
C776        F792   1.358       .  S
C777        C778   1.411       .  A
C778        F781   1.358       .  S
C779        C782   1.405       .  A
C779        C786   1.405       .  A
C782        C783   1.400       .  A
C782        F787   1.358       .  S
C783        C784   1.408       .  A
C783        F789   1.358       .  S
C784        C785   1.408       .  A
C785        C786   1.401       .  A
C785        F788   1.358       .  S
C786        F790   1.358       .  S
C793        C794   1.407       .  A
C793        C798   1.397       .  A
C793        F811   1.358       .  S
C794        C795   1.407       .  A
C794        C799   1.489       .  S
C795        C796   1.397       .  A
C795        F800   1.358       .  S
C796        C797   1.412       .  A
C796        F812   1.357       .  S
C797        C798   1.412       .  A
C798        F801   1.357       .  S
C799        C802   1.407       .  A
C799        C806   1.407       .  A
C802        C803   1.397       .  A
C802        F807   1.358       .  S
C803        C804   1.413       .  A
C803        F809   1.357       .  S
C804        C805   1.413       .  A
C805        C806   1.397       .  A
C805        F808   1.357       .  S
C806        F810   1.358       .  S
C813        C818   1.398   1_655  A
C813        F831   1.358       .  S
C814       C1229   1.404       .  A
C814        C815   1.404       .  A
C814        C819   1.478       .  S
C815        C816   1.398   1_655  A
C815        F820   1.358       .  S
C816        C817   1.410       .  A
C816        F832   1.358       .  S
C817       C1234   1.410       .  A
C818        F821   1.358       .  S
C819       C1238   1.406       .  A
C819        C826   1.406       .  A
C822        C823   1.398       .  A
C822        F827   1.358       .  S
C823        F829   1.358       .  S
C824       C1239   1.405       .  A
C824        C825   1.405       .  A
C825        C826   1.398       .  A
C825        F828   1.358       .  S
C826        F830   1.358       .  S
C833        C838   1.405       .  A
C833       C1025   1.487       .  S
C834        C835   1.403       .  A
C834        H839   1.083       .  S
C835        C836   1.404       .  A
C835        C939   1.475       .  S
C836        H840   1.084       .  S
C837        C838   1.403       .  A
C837        C862   1.475       .  S
C838        H841   1.084       .  S
C842        C843   1.401       .  A
C842       C1032   1.476       .  S
C843        C844   1.402       .  A
C843        H848   1.084       .  S
C844        C845   1.404       .  A
C844        C894   1.472       .  S
C845        H849   1.084       .  S
C846        C847   1.403       .  A
C846        C928   1.473       .  S
C847        H850   1.084       .  S
O851        V859   1.903       .  S
O851        C861   1.266       .  A
O852        V859   1.900       .  S
O852        C862   1.265       .  A
O853        V859   1.892       .  S
O853        C863   1.262       .  A
O854        V859   1.898       .  S
O854        C864   1.263       .  A
O855        V860   1.895       .  S
O855        C864   1.264       .  A
O856        V860   1.903       .  S
O856        C863   1.266       .  A
O857        V860   1.901       .  S
O857        C862   1.264       .  A
O858        V860   1.893       .  S
O858        C861   1.262       .  A
V859        V860   2.089       .  T
C861        C901   1.472       .  S
C863        C945   1.471       .  S
C864        C869   1.470       .  S
C865        C866   1.408       .  A
C865        C870   1.408       .  A
C865       C1012   1.497       .  S
C866        C867   1.402       .  A
C866        H871   1.082       .  S
C867        C868   1.400       .  A
C867        C941   1.469       .  S
C868        C869   1.400       .  A
C868        H872   1.084       .  S
C869        C870   1.402       .  A
C870        H873   1.082       .  S
C874        C875   1.407       .  A
C874        C879   1.407       .  A
C874       C1005   1.495       .  S
C875        C876   1.403       .  A
C875        H880   1.082       .  S
C876        C877   1.400       .  A
C876        C926   1.470       .  S
C877        C878   1.401       .  A
C877        H881   1.084       .  S
C878        C879   1.402       .  A
C878        C896   1.470       .  S
C879        H882   1.083       .  S
O883        V891   1.901       .  S
O883        C893   1.265       .  A
O884       V1099   1.896       .  S
O884        C894   1.264       .  A
O885        V891   1.894       .  S
O885        C895   1.263       .  A
O886       V1099   1.899       .  S
O886        C896   1.264       .  A
O887       V1100   1.895       .  S
O887        C896   1.264       .  A
O888        V892   1.903       .  S
O888        C895   1.265       .  A
O889       V1100   1.901       .  S
O889        C894   1.264       .  A
O890        V892   1.894       .  S
O890        C893   1.263       .  A
V891       O1092   1.896   1_554  S
V891       O1094   1.899   1_554  S
V891        V892   2.089       .  T
V892       O1095   1.895   1_554  S
V892       O1097   1.901   1_554  S
C893        C908   1.471       .  S
C895        C956   1.472       .  S
C897        C898   1.404       .  A
C897        C902   1.405       .  A
C897        C992   1.485       .  S
C898        C899   1.405       .  A
C898        H903   1.084       .  S
C899        C900   1.401       .  A
C899        C940   1.472       .  S
C900        C901   1.401       .  A
C900        H904   1.084       .  S
C901        C902   1.406       .  A
C902        H905   1.084       .  S
C906        C907   1.406       .  A
C906        C911   1.406       .  A
C906        C985   1.491       .  S
C907        C908   1.405       .  A
C907        H912   1.084       .  S
C908        C909   1.401       .  A
C909        C910   1.401       .  A
C909        H913   1.084       .  S
C910        C911   1.405       .  A
C910        C927   1.472       .  S
C911        H914   1.084       .  S
O915        V923   1.903       .  S
O915        C925   1.265       .  A
O916        V923   1.895       .  S
O916        C926   1.264       .  A
O917        V923   1.893       .  S
O917        C927   1.262       .  A
O918        V923   1.900       .  S
O918        C928   1.264       .  A
O919        V924   1.898       .  S
O919        C928   1.264       .  A
O920        V924   1.902       .  S
O920        C927   1.266       .  A
O921        V924   1.900       .  S
O921        C926   1.264       .  A
O922        V924   1.895       .  S
O922        C925   1.263       .  A
V923        V924   2.089       .  T
C925        C954   1.472       .  S
O929       V1145   1.899       .  S
O929        C939   1.265       .  A
O930        V937   1.903       .  S
O930        C940   1.266       .  A
O931       V1145   1.898       .  S
O931        C941   1.263       .  A
O932        V937   1.892       .  S
O932        C942   1.262       .  A
O933        V938   1.903       .  S
O933        C942   1.266       .  A
O934       V1146   1.895       .  S
O934        C941   1.264       .  A
O935        V938   1.893       .  S
O935        C940   1.262       .  A
O936       V1146   1.901       .  S
O936        C939   1.264       .  A
V937       O1137   1.899   1_554  S
V937       O1139   1.898   1_554  S
V937        V938   2.089       .  T
V938       O1142   1.895   1_554  S
V938       O1144   1.901   1_554  S
C942        C947   1.471       .  S
C943        C944   1.403       .  A
C943        C965   1.481       .  S
C944        C945   1.404       .  A
C944        H949   1.084       .  S
C946        C947   1.402       .  A
C946        H950   1.084       .  S
C947        C948   1.404       .  A
C948        H951   1.084       .  S
C952        C957   1.401       .  A
C952        C972   1.475       .  S
C953        C954   1.404       .  A
C953        H958   1.084       .  S
C955        C956   1.404       .  A
C955        H959   1.083       .  S
C956        C957   1.404       .  A
C957        H960   1.084       .  S
C961        C966   1.399   1_655  A
C961        F979   1.358       .  S
C962        C963   1.406       .  A
C962        C967   1.481       .  S
C963        C964   1.399   1_655  A
C963        F968   1.358       .  S
C964        C965   1.407       .  A
C964        F980   1.358       .  S
C966        F969   1.358       .  S
C967        C974   1.406       .  A
C970        C971   1.399       .  A
C970        F975   1.358       .  S
C971        F977   1.358       .  S
C972        C973   1.404       .  A
C973        C974   1.399       .  A
C973        F976   1.358       .  S
C974        F978   1.358       .  S
C981        C982   1.404       .  A
C981        C986   1.400       .  A
C981        F999   1.358       .  S
C982        C983   1.404       .  A
C982        C987   1.481       .  S
C983        C984   1.400       .  A
C983        F988   1.358       .  S
C984        C985   1.411       .  A
C984       F1000   1.358       .  S
C985        C986   1.411       .  A
C986        F989   1.358       .  S
C987        C990   1.405       .  A
C987        C994   1.405       .  A
C990        C991   1.400       .  A
C990        F995   1.358       .  S
C991        C992   1.408       .  A
C991        F997   1.358       .  S
C992        C993   1.408       .  A
C993        C994   1.401       .  A
C993        F996   1.358       .  S
C994        F998   1.358       .  S
C1001      C1002   1.407       .  A
C1001      C1006   1.397       .  A
C1001      F1019   1.358       .  S
C1002      C1003   1.407       .  A
C1002      C1007   1.489       .  S
C1003      C1004   1.397       .  A
C1003      F1008   1.358       .  S
C1004      C1005   1.412       .  A
C1004      F1020   1.357       .  S
C1005      C1006   1.412       .  A
C1006      F1009   1.357       .  S
C1007      C1010   1.407       .  A
C1007      C1014   1.407       .  A
C1010      C1011   1.397       .  A
C1010      F1015   1.358       .  S
C1011      C1012   1.413       .  A
C1011      F1017   1.357       .  S
C1012      C1013   1.413       .  A
C1013      C1014   1.397       .  A
C1013      F1016   1.357       .  S
C1014      F1018   1.358       .  S
C1021      C1026   1.398   1_655  A
C1021      F1039   1.358       .  S
C1022      C1023   1.404       .  A
C1022      C1027   1.478       .  S
C1023      C1024   1.398   1_655  A
C1023      F1028   1.358       .  S
C1024      C1025   1.410       .  A
C1024      F1040   1.358       .  S
C1026      F1029   1.358       .  S
C1027      C1034   1.406   1_565  A
C1030      C1031   1.398       .  A
C1030      F1035   1.358       .  S
C1031      F1037   1.358       .  S
C1032      C1033   1.405   1_565  A
C1033      C1034   1.398       .  A
C1033      F1036   1.358       .  S
C1034      F1038   1.358       .  S
C1041      C1046   1.405       .  A
C1041      C1233   1.487       .  S
C1042      C1043   1.403       .  A
C1042      H1047   1.083       .  S
C1043      C1044   1.404       .  A
C1043      C1147   1.475       .  S
C1044      H1048   1.084       .  S
C1045      C1046   1.403       .  A
C1045      C1070   1.475       .  S
C1046      H1049   1.084       .  S
C1050      C1051   1.401       .  A
C1050      C1240   1.476       .  S
C1051      C1052   1.402       .  A
C1051      H1056   1.084       .  S
C1052      C1053   1.404       .  A
C1052      C1102   1.472       .  S
C1053      H1057   1.084       .  S
C1054      C1055   1.403       .  A
C1054      C1136   1.473       .  S
C1055      H1058   1.084       .  S
O1059      V1067   1.903       .  S
O1059      C1069   1.266       .  A
O1060      V1067   1.900       .  S
O1060      C1070   1.265       .  A
O1061      V1067   1.892       .  S
O1061      C1071   1.262       .  A
O1062      V1067   1.898       .  S
O1062      C1072   1.263       .  A
O1063      V1068   1.895       .  S
O1063      C1072   1.264       .  A
O1064      V1068   1.903       .  S
O1064      C1071   1.266       .  A
O1065      V1068   1.901       .  S
O1065      C1070   1.264       .  A
O1066      V1068   1.893       .  S
O1066      C1069   1.262       .  A
V1067      V1068   2.089       .  T
C1069      C1109   1.473       .  S
C1071      C1153   1.471       .  S
C1072      C1077   1.470       .  S
C1073      C1074   1.408       .  A
C1073      C1078   1.408       .  A
C1073      C1220   1.497       .  S
C1074      C1075   1.402       .  A
C1074      H1079   1.082       .  S
C1075      C1076   1.400       .  A
C1075      C1149   1.469       .  S
C1076      C1077   1.400       .  A
C1076      H1080   1.084       .  S
C1077      C1078   1.402       .  A
C1078      H1081   1.082       .  S
C1082      C1083   1.407       .  A
C1082      C1087   1.407       .  A
C1082      C1213   1.495       .  S
C1083      C1084   1.403       .  A
C1083      H1088   1.082       .  S
C1084      C1085   1.400       .  A
C1084      C1134   1.470       .  S
C1085      C1086   1.400       .  A
C1085      H1089   1.084       .  S
C1086      C1087   1.402       .  A
C1086      C1104   1.470       .  S
C1087      H1090   1.082       .  S
O1091      V1099   1.901       .  S
O1091      C1101   1.265       .  A
O1092      C1102   1.264       .  A
O1093      V1099   1.894       .  S
O1093      C1103   1.263       .  A
O1094      C1104   1.264       .  A
O1095      C1104   1.264       .  A
O1096      V1100   1.903       .  S
O1096      C1103   1.265       .  A
O1097      C1102   1.264       .  A
O1098      V1100   1.894       .  S
O1098      C1101   1.263       .  A
V1099      V1100   2.089       .  T
C1101      C1116   1.471       .  S
C1103      C1164   1.472       .  S
C1105      C1106   1.404       .  A
C1105      C1110   1.405       .  A
C1105      C1200   1.485       .  S
C1106      C1107   1.405       .  A
C1106      H1111   1.084       .  S
C1107      C1108   1.401       .  A
C1107      C1148   1.472       .  S
C1108      C1109   1.401       .  A
C1108      H1112   1.084       .  S
C1109      C1110   1.405       .  A
C1110      H1113   1.084       .  S
C1114      C1115   1.406       .  A
C1114      C1119   1.406       .  A
C1114      C1193   1.491       .  S
C1115      C1116   1.405       .  A
C1115      H1120   1.084       .  S
C1116      C1117   1.401       .  A
C1117      C1118   1.401       .  A
C1117      H1121   1.084       .  S
C1118      C1119   1.405       .  A
C1118      C1135   1.472       .  S
C1119      H1122   1.084       .  S
O1123      V1131   1.903       .  S
O1123      C1133   1.265       .  A
O1124      V1131   1.895       .  S
O1124      C1134   1.264       .  A
O1125      V1131   1.893       .  S
O1125      C1135   1.262       .  A
O1126      V1131   1.900       .  S
O1126      C1136   1.264       .  A
O1127      V1132   1.898       .  S
O1127      C1136   1.264       .  A
O1128      V1132   1.902       .  S
O1128      C1135   1.266       .  A
O1129      V1132   1.900       .  S
O1129      C1134   1.264       .  A
O1130      V1132   1.895       .  S
O1130      C1133   1.263       .  A
V1131      V1132   2.089       .  T
C1133      C1162   1.472       .  S
O1137      C1147   1.265       .  A
O1138      V1145   1.903       .  S
O1138      C1148   1.266       .  A
O1139      C1149   1.263       .  A
O1140      V1145   1.892       .  S
O1140      C1150   1.262       .  A
O1141      V1146   1.903       .  S
O1141      C1150   1.266       .  A
O1142      C1149   1.264       .  A
O1143      V1146   1.893       .  S
O1143      C1148   1.262       .  A
O1144      C1147   1.264       .  A
V1145      V1146   2.089       .  T
C1150      C1155   1.471       .  S
C1151      C1152   1.403       .  A
C1151      C1173   1.481       .  S
C1152      C1153   1.404       .  A
C1152      H1157   1.084       .  S
C1154      C1155   1.402       .  A
C1154      H1158   1.084       .  S
C1155      C1156   1.404       .  A
C1156      H1159   1.084       .  S
C1160      C1165   1.401       .  A
C1160      C1180   1.475       .  S
C1161      C1162   1.404       .  A
C1161      H1166   1.084       .  S
C1163      C1164   1.404       .  A
C1163      H1167   1.083       .  S
C1164      C1165   1.404       .  A
C1165      H1168   1.084       .  S
C1169      C1174   1.399   1_655  A
C1169      F1187   1.358       .  S
C1170      C1171   1.406       .  A
C1170      C1175   1.481       .  S
C1171      C1172   1.399   1_655  A
C1171      F1176   1.358       .  S
C1172      C1173   1.407       .  A
C1172      F1188   1.358       .  S
C1174      F1177   1.358       .  S
C1175      C1182   1.406       .  A
C1178      C1179   1.399       .  A
C1178      F1183   1.358       .  S
C1179      F1185   1.358       .  S
C1180      C1181   1.404       .  A
C1181      C1182   1.399       .  A
C1181      F1184   1.358       .  S
C1182      F1186   1.358       .  S
C1189      C1190   1.404       .  A
C1189      C1194   1.400       .  A
C1189      F1207   1.358       .  S
C1190      C1191   1.404       .  A
C1190      C1195   1.481       .  S
C1191      C1192   1.400       .  A
C1191      F1196   1.358       .  S
C1192      C1193   1.411       .  A
C1192      F1208   1.358       .  S
C1193      C1194   1.411       .  A
C1194      F1197   1.358       .  S
C1195      C1198   1.405       .  A
C1195      C1202   1.405       .  A
C1198      C1199   1.400       .  A
C1198      F1203   1.358       .  S
C1199      C1200   1.408       .  A
C1199      F1205   1.358       .  S
C1200      C1201   1.408       .  A
C1201      C1202   1.401       .  A
C1201      F1204   1.358       .  S
C1202      F1206   1.358       .  S
C1209      C1210   1.407       .  A
C1209      C1214   1.397       .  A
C1209      F1227   1.358       .  S
C1210      C1211   1.407       .  A
C1210      C1215   1.489       .  S
C1211      C1212   1.397       .  A
C1211      F1216   1.358       .  S
C1212      C1213   1.412       .  A
C1212      F1228   1.357       .  S
C1213      C1214   1.412       .  A
C1214      F1217   1.357       .  S
C1215      C1218   1.407       .  A
C1215      C1222   1.407       .  A
C1218      C1219   1.397       .  A
C1218      F1223   1.358       .  S
C1219      C1220   1.413       .  A
C1219      F1225   1.357       .  S
C1220      C1221   1.413       .  A
C1221      C1222   1.397       .  A
C1221      F1224   1.357       .  S
C1222      F1226   1.358       .  S
C1229      C1234   1.398   1_655  A
C1229      F1247   1.358       .  S
C1230      C1231   1.404       .  A
C1230      C1235   1.478       .  S
C1231      C1232   1.398   1_655  A
C1231      F1236   1.358       .  S
C1232      C1233   1.410       .  A
C1232      F1248   1.358       .  S
C1234      F1237   1.358       .  S
C1235      C1242   1.406   1_565  A
C1238      C1239   1.398       .  A
C1238      F1243   1.358       .  S
C1239      F1245   1.358       .  S
C1240      C1241   1.405   1_565  A
C1241      C1242   1.398       .  A
C1241      F1244   1.358       .  S
C1242      F1246   1.358       .  S
